pglib_opf_case2736sp_k/dapi/pglib_opf_case2736sp_k_6regions_dapi.m
% -------------------------------------------------------------------------
% Partitioned MATPOWER Case File
% Copyright (c) 2025 Milad Hasanzadeh
% Generated on: 2026-06-14
% This file contains partitioned data for 6 regions


% -------------------- mpc_regionR1 --------------------

mpc_regionR1.version = '2';
mpc_regionR1.baseMVA = 100.0000;
mpc_regionR1.bus = [
%	bus_i       type        Pd          Qd          Gs          Bs          area        Vm          Va          baseKV      zone        Vmax        Vmin        
	 1	 1	 0	 0	 0	 0	 1	 1	 0	 400	 1	 1.05	 0.95;
	 2	 2	 26.93	 57	 0	 0	 1	 1	 0	 400	 3	 1.05	 0.95;
	 3	 1	 0	 0	 0	 0	 1	 1.03	 0	 220	 3	 1.11	 0.95;
	 4	 1	 0	 0	 0	 0	 1	 1.03	 0	 220	 3	 1.11	 0.95;
	 5	 1	 0	 0	 0	 0	 1	 1.03	 0	 220	 4	 1.11	 0.95;
	 6	 1	 0	 0	 0	 0	 1	 1.03	 0	 220	 4	 1.11	 0.95;
	 7	 1	 0	 0	 0	 0	 1	 1	 0	 400	 4	 1.05	 0.95;
	 8	 1	 0	 0	 0	 0	 1	 1	 0	 400	 4	 1.05	 0.95;
	 9	 1	 0	 0	 0	 0	 1	 1.03	 0	 220	 4	 1.11	 0.95;
	 10	 1	 0	 0	 0	 0	 1	 1.03	 0	 220	 4	 1.11	 0.95;
	 11	 1	 0	 0	 0	 0	 1	 1.03	 0	 220	 4	 1.11	 0.95;
	 12	 2	 29.13	 64.3	 0	 0	 1	 1.03	 0	 220	 4	 1.11	 0.95;
	 13	 2	 23.94	 33	 0	 0	 1	 1.03	 0	 220	 4	 1.11	 0.95;
	 14	 1	 0	 0	 0	 0	 1	 1	 0	 400	 4	 1.05	 0.95;
	 15	 2	 14.96	 25	 0	 0	 1	 1	 0	 400	 4	 1.05	 0.95;
	 16	 1	 0	 0	 0	 0	 1	 1	 0	 400	 4	 1.05	 0.95;
	 17	 1	 0	 0	 0	 0	 1	 1	 0	 400	 4	 1.05	 0.95;
	 18	 1	 0	 0	 0	 0	 1	 1	 0	 400	 4	 1.05	 0.95;
	 19	 1	 0	 0	 0	 0	 1	 1.03	 0	 220	 4	 1.11	 0.95;
	 20	 1	 0	 0	 0	 0	 1	 1.03	 0	 220	 4	 1.11	 0.95;
	 21	 1	 0	 0	 0	 0	 1	 1.03	 0	 220	 4	 1.11	 0.95;
	 22	 1	 0	 0	 0	 0	 1	 1.03	 0	 220	 4	 1.11	 0.95;
	 23	 1	 0	 0	 0	 0	 1	 1.03	 0	 220	 4	 1.11	 0.95;
	 24	 1	 0	 0	 0	 0	 1	 1.03	 0	 220	 4	 1.11	 0.95;
	 25	 1	 0	 0	 0	 0	 1	 1.03	 0	 220	 4	 1.11	 0.95;
	 26	 2	 0	 0	 0	 0	 1	 1.035	 0	 110	 1	 1.12	 0.95;
	 27	 2	 9.88	 2.1	 0	 0	 1	 1.035	 0	 110	 1	 1.12	 0.95;
	 28	 1	 5.58	 0.4	 0	 0	 1	 1.035	 0	 110	 1	 1.12	 0.95;
	 29	 1	 5.58	 0.4	 0	 0	 1	 1.035	 0	 110	 1	 1.12	 0.95;
	 30	 1	 7.97	 1.4	 0	 0	 1	 1.035	 0	 110	 1	 1.12	 0.95;
	 31	 1	 7.17	 0.5	 0	 0	 1	 1.035	 0	 110	 1	 1.12	 0.95;
	 32	 1	 2.23	 0.2	 0	 0	 1	 1.035	 0	 110	 1	 1.12	 0.95;
	 33	 1	 15.94	 1.2	 0	 0	 1	 1.035	 0	 110	 1	 1.12	 0.95;
	 34	 1	 28.69	 7	 0	 0	 1	 1.035	 0	 110	 1	 1.12	 0.95;
	 35	 1	 11.16	 4	 0	 0	 1	 1.035	 0	 110	 1	 1.12	 0.95;
	 36	 1	 3.19	 0.5	 0	 0	 1	 1.035	 0	 110	 1	 1.12	 0.95;
	 37	 1	 3.19	 0.5	 0	 0	 1	 1.035	 0	 110	 1	 1.12	 0.95;
	 38	 1	 20.72	 1.4	 0	 0	 1	 1.035	 0	 110	 1	 1.12	 0.95;
	 39	 1	 9.56	 0.6	 0	 0	 1	 1.035	 0	 110	 1	 1.12	 0.95;
	 40	 1	 6.37	 1.34	 0	 0	 1	 1.035	 0	 110	 3	 1.12	 0.95;
	 41	 1	 0	 0	 0	 0	 1	 1.035	 0	 110	 3	 1.12	 0.95;
	 42	 1	 0	 0	 0	 0	 1	 1.035	 0	 110	 3	 1.12	 0.95;
	 43	 1	 2.23	 0.22	 0	 0	 1	 1.035	 0	 110	 3	 1.12	 0.95;
	 44	 1	 18.59	 0.97	 0	 0	 1	 1.035	 0	 110	 3	 1.12	 0.95;
	 45	 1	 0	 0	 0	 0	 1	 1.035	 0	 110	 3	 1.12	 0.95;
	 46	 1	 0	 0	 0	 0	 1	 1.035	 0	 110	 3	 1.12	 0.95;
	 47	 1	 4.99	 0.48	 0	 0	 1	 1.035	 0	 110	 3	 1.12	 0.95;
	 48	 1	 0	 0	 0	 0	 1	 1.035	 0	 110	 3	 1.12	 0.95;
	 49	 1	 2.75	 0.3	 0	 0	 1	 1.035	 0	 110	 3	 1.12	 0.95;
	 50	 1	 7.05	 1.28	 0	 0	 1	 1.035	 0	 110	 3	 1.12	 0.95;
	 51	 1	 0	 0	 0	 0	 1	 1.035	 0	 110	 3	 1.12	 0.95;
	 52	 1	 2.06	 0.45	 0	 0	 1	 1.035	 0	 110	 3	 1.12	 0.95;
	 53	 1	 0	 0	 0	 0	 1	 1.035	 0	 110	 3	 1.12	 0.95;
	 54	 1	 0	 0	 0	 0	 1	 1.035	 0	 110	 3	 1.12	 0.95;
	 55	 2	 37.23	 53.71	 0	 0	 1	 1.035	 0	 110	 3	 1.12	 0.95;
	 56	 2	 37.23	 52.97	 0	 0	 1	 1.035	 0	 110	 3	 1.12	 0.95;
	 57	 1	 5.67	 0.56	 0	 0	 1	 1.035	 0	 110	 3	 1.12	 0.95;
	 58	 1	 4.47	 0.17	 0	 0	 1	 1.035	 0	 110	 3	 1.12	 0.95;
	 59	 1	 2.58	 0.73	 0	 0	 1	 1.035	 0	 110	 3	 1.12	 0.95;
	 60	 1	 0	 0	 0	 0	 1	 1.035	 0	 110	 3	 1.12	 0.95;
	 61	 1	 5.15	 0.45	 0	 0	 1	 1.035	 0	 110	 3	 1.12	 0.95;
	 62	 1	 0	 0.11	 0	 0	 1	 1.035	 0	 110	 3	 1.12	 0.95;
	 63	 1	 10.49	 0.42	 0	 0	 1	 1.035	 0	 110	 3	 1.12	 0.95;
	 64	 1	 0	 0	 0	 0	 1	 1.035	 0	 110	 3	 1.12	 0.95;
	 65	 1	 4.81	 0.45	 0	 0	 1	 1.035	 0	 110	 3	 1.12	 0.95;
	 66	 1	 17.16	 1.19	 0	 0	 1	 1.035	 0	 110	 3	 1.12	 0.95;
	 67	 1	 4.47	 0.77	 0	 0	 1	 1.035	 0	 110	 3	 1.12	 0.95;
	 68	 1	 8.08	 1.62	 0	 0	 1	 1.035	 0	 110	 3	 1.12	 0.95;
	 69	 1	 5.85	 2.08	 0	 0	 1	 1.035	 0	 110	 3	 1.12	 0.95;
	 70	 1	 2.75	 0.15	 0	 0	 1	 1.035	 0	 110	 3	 1.12	 0.95;
	 71	 1	 4.12	 0.31	 0	 0	 1	 1.035	 0	 110	 3	 1.12	 0.95;
	 72	 1	 3.26	 0.38	 0	 0	 1	 1.035	 0	 110	 3	 1.12	 0.95;
	 73	 1	 10.98	 0.3	 0	 0	 1	 1.035	 0	 110	 3	 1.12	 0.95;
	 74	 1	 3.43	 0.82	 0	 0	 1	 1.035	 0	 110	 3	 1.12	 0.95;
	 75	 1	 1.55	 0.49	 0	 0	 1	 1.035	 0	 110	 3	 1.12	 0.95;
	 76	 1	 4.36	-0.72	 0	 0	 1	 1.035	 0	 110	 3	 1.12	 0.95;
	 77	 1	 4.13	-0.81	 0	 0	 1	 1.035	 0	 110	 3	 1.12	 0.95;
	 78	 1	 5.5	 1.65	 0	 0	 1	 1.035	 0	 110	 3	 1.12	 0.95;
	 79	 1	 6.18	 0.84	 0	 0	 1	 1.035	 0	 110	 3	 1.12	 0.95;
	 80	 1	 2.87	 0	 0	 0	 1	 1.035	 0	 110	 3	 1.12	 0.95;
	 81	 1	 10.13	 0.45	 0	 0	 1	 1.035	 0	 110	 3	 1.12	 0.95;
	 82	 1	 2.06	 0.5	 0	 0	 1	 1.035	 0	 110	 3	 1.12	 0.95;
	 83	 1	 2.58	 0.66	 0	 0	 1	 1.035	 0	 110	 3	 1.12	 0.95;
	 84	 1	 0	 0	 0	 0	 1	 1.035	 0	 110	 3	 1.12	 0.95;
	 85	 1	 0	 0	 0	 0	 1	 1.035	 0	 110	 3	 1.12	 0.95;
	 86	 1	 4.98	 1.08	 0	 0	 1	 1.035	 0	 110	 3	 1.12	 0.95;
	 87	 1	 4.3	 0.92	 0	 0	 1	 1.035	 0	 110	 3	 1.12	 0.95;
	 88	 1	 0	 0	 0	 0	 1	 1.035	 0	 110	 3	 1.12	 0.95;
	 89	 1	 7.58	 1.26	 0	 0	 1	 1.035	 0	 110	 3	 1.12	 0.95;
	 90	 1	 5.84	 0.65	 0	 0	 1	 1.035	 0	 110	 3	 1.12	 0.95;
	 91	 1	 10.48	 1.19	 0	 0	 1	 1.035	 0	 110	 3	 1.12	 0.95;
	 92	 1	 4.47	 0.69	 0	 0	 1	 1.035	 0	 110	 3	 1.12	 0.95;
	 93	 1	 3.09	 0.07	 0	 0	 1	 1.035	 0	 110	 3	 1.12	 0.95;
	 94	 2	 32.94	 6.97	 0	 0	 1	 1.035	 0	 110	 3	 1.12	 0.95;
	 95	 1	 5.06	-0.08	 0	 0	 1	 1.035	 0	 110	 3	 1.12	 0.95;
	 96	 1	 3.09	 0.67	 0	 0	 1	 1.035	 0	 110	 3	 1.12	 0.95;
	 97	 1	 25.4	 8.02	 0	 0	 1	 1.035	 0	 110	 3	 1.12	 0.95;
	 98	 1	 0	 0	 0	 0	 1	 1.035	 0	 110	 3	 1.12	 0.95;
	 99	 1	 12.04	 1.47	 0	 0	 1	 1.035	 0	 110	 3	 1.12	 0.95;
	 100	 1	 6.36	 0.95	 0	 0	 1	 1.035	 0	 110	 3	 1.12	 0.95;
	 101	 1	 6.02	 0.42	 0	 0	 1	 1.035	 0	 110	 3	 1.12	 0.95;
	 102	 1	 3.78	 0	 0	 0	 1	 1.035	 0	 110	 3	 1.12	 0.95;
	 103	 1	 4.64	 0.4	 0	 0	 1	 1.035	 0	 110	 3	 1.12	 0.95;
	 104	 1	 3.43	 0.16	 0	 0	 1	 1.035	 0	 110	 3	 1.12	 0.95;
	 105	 1	 5.84	 0.13	 0	 0	 1	 1.035	 0	 110	 3	 1.12	 0.95;
	 106	 1	 4.47	 0.5	 0	 0	 1	 1.035	 0	 110	 3	 1.12	 0.95;
	 107	 1	 3.44	 0.22	 0	 0	 1	 1.035	 0	 110	 3	 1.12	 0.95;
	 108	 1	 4.99	 0.48	 0	 0	 1	 1.035	 0	 110	 3	 1.12	 0.95;
	 109	 1	 5.86	-0.77	 0	 0	 1	 1.035	 0	 110	 3	 1.12	 0.95;
	 110	 1	 6.7	 0.43	 0	 0	 1	 1.035	 0	 110	 3	 1.12	 0.95;
	 111	 1	 0	 0	 0	 0	 1	 1.035	 0	 110	 3	 1.12	 0.95;
	 112	 1	 6.78	-0.17	 0	 0	 1	 1.035	 0	 110	 3	 1.12	 0.95;
	 113	 1	 0	 0	 0	 0	 1	 1.035	 0	 110	 3	 1.12	 0.95;
	 114	 1	 8.41	 0.07	 0	 0	 1	 1.035	 0	 110	 3	 1.12	 0.95;
	 115	 1	 0	 0	 0	 0	 1	 1.035	 0	 110	 3	 1.12	 0.95;
	 116	 1	 0	 0	 0	 0	 1	 1.035	 0	 110	 3	 1.12	 0.95;
	 117	 1	 1.89	 0.42	 0	 0	 1	 1.035	 0	 110	 3	 1.12	 0.95;
	 118	 1	 2.92	 0.66	 0	 0	 1	 1.035	 0	 110	 3	 1.12	 0.95;
	 119	 1	 12.39	 1.83	 0	 0	 1	 1.035	 0	 110	 3	 1.12	 0.95;
	 120	 1	 2.41	 0.05	 0	 0	 1	 1.035	 0	 110	 3	 1.12	 0.95;
	 121	 1	 6.69	 0.15	 0	 0	 1	 1.035	 0	 110	 3	 1.12	 0.95;
	 122	 1	 1.73	-0.93	 0	 0	 1	 1.035	 0	 110	 3	 1.12	 0.95;
	 123	 1	 0	 0	 0	 0	 1	 1.035	 0	 110	 3	 1.12	 0.95;
	 124	 1	 6.18	 1.69	 0	 0	 1	 1.035	 0	 110	 3	 1.12	 0.95;
	 125	 1	 0	 0	 0	 0	 1	 1.035	 0	 110	 3	 1.12	 0.95;
	 126	 1	 0	 0	 0	 0	 1	 1.035	 0	 110	 3	 1.12	 0.95;
	 127	 1	 5.85	 0.5	 0	 0	 1	 1.035	 0	 110	 3	 1.12	 0.95;
	 128	 1	 3.78	 1.04	 0	 0	 1	 1.035	 0	 110	 3	 1.12	 0.95;
	 129	 1	 0	 0.02	 0	 0	 1	 1.035	 0	 110	 3	 1.12	 0.95;
	 130	 1	 0	 0	 0	 0	 1	 1.035	 0	 110	 3	 1.12	 0.95;
	 131	 1	 0	 0	 0	 0	 1	 1.035	 0	 110	 3	 1.12	 0.95;
	 132	 1	 8.94	 1	 0	 0	 1	 1.035	 0	 110	 3	 1.12	 0.95;
	 133	 1	 3.78	 0.27	 0	 0	 1	 1.035	 0	 110	 3	 1.12	 0.95;
	 134	 1	 4.64	 0.56	 0	 0	 1	 1.035	 0	 110	 3	 1.12	 0.95;
	 135	 1	 12.21	 0.68	 0	 0	 1	 1.035	 0	 110	 3	 1.12	 0.95;
	 136	 1	 1.2	 0.21	 0	 0	 1	 1.035	 0	 110	 3	 1.12	 0.95;
	 137	 1	 0	 0	 0	 0	 1	 1.035	 0	 110	 3	 1.12	 0.95;
	 138	 1	 3.78	 0.01	 0	 0	 1	 1.035	 0	 110	 3	 1.12	 0.95;
	 139	 1	 0	 0	 0	 0	 1	 1.035	 0	 110	 3	 1.12	 0.95;
	 140	 1	 6.02	 1.17	 0	 0	 1	 1.035	 0	 110	 3	 1.12	 0.95;
	 141	 1	 5.5	 1.16	 0	 0	 1	 1.035	 0	 110	 3	 1.12	 0.95;
	 142	 1	 3.09	 0.52	 0	 0	 1	 1.035	 0	 110	 3	 1.12	 0.95;
	 143	 1	 9.45	 0.78	 0	 0	 1	 1.035	 0	 110	 3	 1.12	 0.95;
	 144	 1	 15.65	 1.89	 0	 0	 1	 1.035	 0	 110	 3	 1.12	 0.95;
	 145	 1	 11.69	 0.54	 0	 0	 1	 1.035	 0	 110	 3	 1.12	 0.95;
	 146	 1	 7.05	 0.97	 0	 0	 1	 1.035	 0	 110	 3	 1.12	 0.95;
	 147	 1	 4.3	 0.54	 0	 0	 1	 1.035	 0	 110	 3	 1.12	 0.95;
	 148	 1	 2.06	 0.11	 0	 0	 1	 1.035	 0	 110	 3	 1.12	 0.95;
	 149	 1	 11.01	 0.97	 0	 0	 1	 1.035	 0	 110	 4	 1.12	 0.95;
	 150	 1	 0	 0	 0	 0	 1	 1.035	 0	 110	 4	 1.12	 0.95;
	 151	 1	 31.33	 4.14	 0	 0	 1	 1.035	 0	 110	 4	 1.12	 0.95;
	 152	 2	 5.7	-0.24	 0	 0	 1	 1.035	 0	 110	 4	 1.12	 0.95;
	 153	 1	 7.72	 0.64	 0	 0	 1	 1.035	 0	 110	 4	 1.12	 0.95;
	 154	 1	 8.15	 1.28	 0	 0	 1	 1.035	 0	 110	 4	 1.12	 0.95;
	 155	 2	 16.91	 2.34	 0	 0	 1	 1.035	 0	 110	 4	 1.12	 0.95;
	 156	 1	 5.51	 0.53	 0	 0	 1	 1.035	 0	 110	 4	 1.12	 0.95;
	 157	 1	 6.61	 0.34	 0	 0	 1	 1.035	 0	 110	 4	 1.12	 0.95;
	 158	 1	 5.51	 0.42	 0	 0	 1	 1.035	 0	 110	 4	 1.12	 0.95;
	 159	 1	 11.01	 1.48	 0	 0	 1	 1.035	 0	 110	 4	 1.12	 0.95;
	 160	 1	 7.05	 0.15	 0	 0	 1	 1.035	 0	 110	 4	 1.12	 0.95;
	 161	 1	 10.8	 0.81	 0	 0	 1	 1.035	 0	 110	 4	 1.12	 0.95;
	 162	 2	 7.04	 0.01	 0	 0	 1	 1.035	 0	 110	 4	 1.12	 0.95;
	 163	 1	 6.61	 0.12	 0	 0	 1	 1.035	 0	 110	 4	 1.12	 0.95;
	 164	 1	 4.02	-1.26	 0	 0	 1	 1.035	 0	 110	 4	 1.12	 0.95;
	 165	 2	 9.03	 0.89	 0	 0	 1	 1.035	 0	 110	 4	 1.12	 0.95;
	 166	 1	 0	 0	 0	 0	 1	 1.035	 0	 110	 4	 1.12	 0.95;
	 167	 2	 8.59	 3	 0	 0	 1	 1.035	 0	 110	 4	 1.12	 0.95;
	 168	 2	 0	 0	 0	 0	 1	 1.035	 0	 110	 4	 1.12	 0.95;
	 169	 1	 6.63	 2.2	 0	 0	 1	 1.035	 0	 110	 4	 1.12	 0.95;
	 170	 1	 9.48	 0.65	 0	 0	 1	 1.035	 0	 110	 4	 1.12	 0.95;
	 171	 1	 0	 0	 0	 0	 1	 1.035	 0	 110	 4	 1.12	 0.95;
	 172	 1	 0	 0	 0	 0	 1	 1.035	 0	 110	 4	 1.12	 0.95;
	 173	 1	 0	 0	 0	 0	 1	 1.035	 0	 110	 4	 1.12	 0.95;
	 174	 1	 0	 0	 0	 0	 1	 1.035	 0	 110	 4	 1.12	 0.95;
	 175	 1	 3.74	 0.09	 0	 0	 1	 1.035	 0	 110	 4	 1.12	 0.95;
	 176	 1	 7.41	 1.19	 0	 0	 1	 1.035	 0	 110	 4	 1.12	 0.95;
	 177	 1	 2.95	-0.02	 0	 0	 1	 1.035	 0	 110	 4	 1.12	 0.95;
	 178	 1	 9.48	 1.31	 0	 0	 1	 1.035	 0	 110	 4	 1.12	 0.95;
	 179	 1	 8.38	 0.98	 0	 0	 1	 1.035	 0	 110	 4	 1.12	 0.95;
	 180	 1	 6.48	-0.9	 0	 0	 1	 1.035	 0	 110	 4	 1.12	 0.95;
	 181	 1	 10.38	 1.07	 0	 0	 1	 1.035	 0	 110	 4	 1.12	 0.95;
	 182	 1	 6.62	 1.17	 0	 0	 1	 1.035	 0	 110	 4	 1.12	 0.95;
	 183	 1	 5.07	 0.27	 0	 0	 1	 1.035	 0	 110	 4	 1.12	 0.95;
	 184	 1	 0	 0	 0	 0	 1	 1.035	 0	 110	 4	 1.12	 0.95;
	 185	 1	 38.76	 6.03	 0	 0	 1	 1.035	 0	 110	 4	 1.12	 0.95;
	 186	 1	 0.45	 0.14	 0	 0	 1	 1.035	 0	 110	 4	 1.12	 0.95;
	 187	 1	 0	 0	 0	 0	 1	 1.035	 0	 110	 4	 1.12	 0.95;
	 188	 1	 6.83	 0.17	 0	 0	 1	 1.035	 0	 110	 4	 1.12	 0.95;
	 189	 2	 34.3	 0.45	 0	 0	 1	 1.035	 0	 110	 4	 1.12	 0.95;
	 190	 1	 0.06	 0.22	 0	 0	 1	 1.035	 0	 110	 4	 1.12	 0.95;
	 191	 1	 55.26	 12.34	 0	 0	 1	 1.035	 0	 110	 4	 1.12	 0.95;
	 192	 1	 55.06	 17	 0	 0	 1	 1.035	 0	 110	 4	 1.12	 0.95;
	 193	 2	 43.36	 7.93	 0	 0	 1	 1.035	 0	 110	 4	 1.12	 0.95;
	 194	 1	 0.97	 0.14	 0	 0	 1	 1.035	 0	 110	 4	 1.12	 0.95;
	 195	 1	 1.1	 0.25	 0	 0	 1	 1.035	 0	 110	 4	 1.12	 0.95;
	 196	 1	 4.85	 0.77	 0	 0	 1	 1.035	 0	 110	 4	 1.12	 0.95;
	 197	 2	 9.46	 0.3	 0	 0	 1	 1.035	 0	 110	 4	 1.12	 0.95;
	 198	 1	 3.31	 0.3	 0	 0	 1	 1.035	 0	 110	 4	 1.12	 0.95;
	 199	 1	 13.47	 0.51	 0	 0	 1	 1.035	 0	 110	 4	 1.12	 0.95;
	 200	 1	 9.92	 1.44	 0	 0	 1	 1.035	 0	 110	 4	 1.12	 0.95;
...
];

mpc_regionR1.gen = [
%	bus         Pg          Qg          Qmax        Qmin        Vg          mBase       status      Pmax        Pmin        Pc1         Pc2         Qc1min      Qc1max      Qc2min      Qc2max      ramp_agc    ramp_10     ramp_30     ramp_q      apf         
	 2	 214.5	 36	 232	-160	 1	 445.2	 1	 319	 110;
	 2	 0	 0	 228	-53	 1	 434.6	 0	 220	 106;
	 12	 156	 8	 149	-133	 1.03	 278.3	 1	 265	 47;
	 12	 0	 0	 149	-53	 1.03	 278.3	 0	 94	 0;
	 12	 137	 4.5	 120	-111	 1.03	 287.3	 1	 222	 52;
	 12	 0	 0	 145	-145	 1.03	 292.5	 0	 290	 52;
	 13	 0	 0	 208	-208	 1.03	 287.3	 0	 415	 52;
	 13	 269	 0	 237	-237	 1.03	 236	 1	 473	 65;
	 13	 148	 0	 118	-118	 1.03	 233.1	 1	 236	 60;
	 13	 0	 0	 109	-63	 1.03	 233.1	 0	 125	 60;
	 15	 259	 0	 229	-229	 1	 233.1	 1	 458	 60;
	 26	 12.3875	 0	 12	-12	 1.035	 2.3	 1	 24	 0.775;
	 27	 27.3875	 0	 27	-27	 1.035	 2.3	 1	 54	 0.775;
	 55	 469.5	 0	 415	-415	 1.035	 454.5	 1	 829	 110;
	 56	 187.5	 47	 227	-133	 1.035	 434.1	 1	 265	 110;
	 94	 45	 0	 40	-40	 1.035	 22.6	 1	 80	 10;
	 152	 18.25	 0	 27.6	-27.6	 1.035	 1.1	 1	 36	 0.5;
	 155	 47.8	 0	 48	-48	 1.035	 1.3	 1	 95	 0.6;
	 162	 26.05	 0	 26	-26	 1.035	 0.2	 1	 52	 0.1;
	 165	 66.525	 0	 67	-67	 1.035	 0.1	 1	 133	 0.05;
	 167	 51.25	 0	 47	-47	 1.035	 52.2	 1	 94	 8.5;
	 167	 0	 0	 15	 0	 1.035	 52.2	 0	 0	 0;
	 168	 0	 0	 10	 0	 1.035	 33.5	 0	 0	 0;
	 189	 83	 0	 80	-80	 1.035	 15.4	 1	 159	 7;
	 193	 56.625	 0	 55	-55	 1.035	 9.4	 1	 109	 4.25;
	 197	 24.525	 0	 49.2	-49.2	 1.035	 0.1	 1	 49	 0.05;
	 209	 0	 0	 1	 0	 1.035	 3.2	 0	 0	 0;
	 209	 32	 0	 32	-32	 1.035	 4.5	 1	 63	 1;
	 211	 27.55	 0	 28	-28	 1.035	 0.2	 1	 55	 0.1;
	 227	 103.75	 0	 103	-103	 1.035	 3.3	 1	 206	 1.5;
	 263	 75.25	 0	 75	-75	 1.035	 1.1	 1	 150	 0.5;
	 282	 24.7	 0	 25	-25	 1.035	 0.9	 1	 49	 0.4;
	 290	 68.05	 0	 68	-68	 1.035	 0.2	 1	 136	 0.1;
	 294	 44.125	 0	 43	-43	 1.035	 5	 1	 86	 2.25;
	 321	 69.5	 0	 69	-69	 1.035	 2.2	 1	 138	 1;
	 337	 32.05	 0	 32	-32	 1.035	 0.2	 1	 64	 0.1;
	 366	 99.5	 36.5	 149	-76	 1.035	 278.3	 1	 152	 47;
	 371	 0	 0	 15	 0	 1.035	 52.2	 0	 0	 0;
	 371	 71.625	 13	 80	-54	 1.035	 128.1	 1	 107	 36.25;
	 372	 0	 0	 80	 0	 1.035	 128.1	 0	 0	 0;
	 375	 26.1	 0	 39.6	-39.6	 1.035	 4.8	 1	 50	 2.2;
	 379	 64.125	 0	 64	-64	 1.035	 2.8	 1	 127	 1.25;
	 383	 116.05	 0	 116	-116	 1.035	 0.2	 1	 232	 0.1;
	 271	 55.64175	 0	 55	-55	 1.035	 2.6	 1	 110	 1.2835;
	 432	 0	 0	 36	-36	 1	 0	 1	 0	 0;
	 433	 0	 0	 66	-66	 1	 0	 1	 0	 0;
];

mpc_regionR1.branch = [
%	fbus        tbus        r           x           b           rateA       rateB       rateC       ratio       angle       status      angmin      angmax      
	 12	 14	 0.000232	 0.023	 0	 500	 500	 500	 1.0953	 0	 1	-30	 30;
	 13	 15	 0.000232	 0.023	 0	 500	 500	 500	 1.0953	 0	 1	-30	 30;
	 433	 14	 0.00031	 0.00338	 0.0992	 1386	 1386	 1386	 0	 0	 1	-30	 30;
	 433	 15	 0.00031	 0.00338	 0.0992	 1386	 1386	 1386	 0	 0	 1	-30	 30;
	 2	 432	 0.002769	 0.031162	 0.89824	 1386	 1386	 1386	 0	 0	 1	-30	 30;
	 23	 3	 0.005517	 0.059484	 0.170775	 316	 316	 316	 0	 0	 1	-30	 30;
	 17	 2	 0.00194	 0.02056	 0.51584	 1178	 1178	 1178	 0	 0	 1	-30	 30;
	 2	 1	 0.00331	 0.03425	 0.85888	 977	 977	 977	 0	 0	 1	-30	 30;
	 3	 4	 0.005702	 0.041488	 0.066172	 404	 404	 404	 0	 0	 1	-30	 30;
	 19	 13	 0.01545	 0.073349	 0.126614	 427	 427	 427	 0	 0	 1	-30	 30;
	 20	 12	 0.01545	 0.073349	 0.126614	 427	 427	 427	 0	 0	 1	-30	 30;
	 21	 12	 0.01457	 0.07955	 0.14007	 324	 324	 324	 0	 0	 1	-30	 30;
	 22	 13	 0.01457	 0.07955	 0.14007	 324	 324	 324	 0	 0	 1	-30	 30;
	 21	 9	 0.006031	 0.04401	 0.069793	 316	 316	 316	 0	 0	 1	-30	 30;
	 6	 12	 0.005831	 0.04231	 0.070664	 383	 383	 383	 0	 0	 1	-30	 30;
	 11	 20	 0.010581	 0.053	 0.088475	 385	 385	 385	 0	 0	 1	-30	 30;
	 5	 6	 0.00506	 0.036539	 0.063598	 305	 305	 305	 0	 0	 1	-30	 30;
	 21	 5	 0.002211	 0.01655	 0.024781	 316	 316	 316	 0	 0	 1	-30	 30;
	 23	 22	 0.005169	 0.036979	 0.058951	 316	 316	 316	 0	 0	 1	-30	 30;
	 25	 19	 0.002401	 0.017789	 0.027588	 381	 381	 381	 0	 0	 1	-30	 30;
	 14	 7	 0.00274	 0.02696	 0.70592	 977	 977	 977	 0	 0	 1	-30	 30;
	 18	 8	 0.0017	 0.01733	 0.45632	 915	 915	 915	 0	 0	 1	-30	 30;
	 16	 17	 0.00136	 0.01574	 0.433664	 1469	 1469	 1469	 0	 0	 1	-30	 30;
	 34	 1	 0.00137	 0.06119	-0.01504	 250	 250	 250	 1.0798	 0	 1	-30	 30;
	 35	 1	 0.00137	 0.06119	-0.01504	 250	 250	 250	 1.0699	 0	 1	-30	 30;
	 55	 2	 0.00156	 0.06269	-0.00992	 250	 250	 250	 1.092	 0	 1	-30	 30;
	 56	 2	 0.00156	 0.06269	-0.00992	 250	 250	 250	 1.0668	 0	 1	-30	 30;
	 73	 3	 0.001651	 0.06694	-0.003098	 160	 160	 160	 1.0097	 0	 1	-30	 30;
	 74	 3	 0.00145	 0.066531	-0.003194	 160	 160	 160	 1.0049	 0	 1	-30	 30;
	 157	 5	 0.00145	 0.06818	 0	 160	 160	 160	 1.0346	 0	 1	-30	 30;
	 158	 5	 0.001651	 0.06818	 0	 160	 160	 160	 1.0336	 0	 1	-30	 30;
	 171	 6	 0.00151	 0.06688	 0	 160	 160	 160	 1.0337	 0	 1	-30	 30;
	 173	 7	 0.00153	 0.06206	 0	 250	 250	 250	 1.1215	 0	 1	-30	 30;
	 174	 8	 0.00152	 0.06206	 0	 250	 250	 250	 1.1015	 0	 1	-30	 30;
	 216	 9	 0.00145	 0.06818	 0	 160	 160	 160	 1.0078	 0	 1	-30	 30;
	 217	 9	 0.00145	 0.06818	 0	 160	 160	 160	 1.0256	 0	 1	-30	 30;
	 267	 11	 0.001651	 0.0593	 0	 160	 160	 160	 1.0274	 0	 1	-30	 30;
	 279	 13	 0.001651	 0.092771	 0	 160	 160	 160	 1.0296	 0	 1	-30	 30;
	 280	 12	 0.001651	 0.06694	 0	 160	 160	 160	 1.0162	 0	 1	-30	 30;
	 295	 16	 0.00101	 0.06188	-0.01984	 330	 330	 330	 1.1039	 0	 1	-30	 30;
	 298	 17	 0.00101	 0.06188	 0	 330	 330	 330	 1.0942	 0	 1	-30	 30;
	 299	 17	 0.00138	 0.05931	 0	 250	 250	 250	 1.096	 0	 1	-30	 30;
	 316	 19	 0.001651	 0.066531	 0	 160	 160	 160	 1.0205	 0	 1	-30	 30;
	 317	 20	 0.001651	 0.06775	 0	 160	 160	 160	 1.0128	 0	 1	-30	 30;
	 353	 21	 0.001651	 0.06818	 0	 160	 160	 160	 1.0447	 0	 1	-30	 30;
	 354	 22	 0.001651	 0.06818	 0	 160	 160	 160	 1.0406	 0	 1	-30	 30;
	 420	 23	 0.001651	 0.06632	 0	 160	 160	 160	 1.0406	 0	 1	-30	 30;
	 430	 25	 0.001651	 0.06632	 0	 160	 160	 160	 1.0207	 0	 1	-30	 30;
	 429	 25	 0.001651	 0.06632	 0	 160	 160	 160	 1.0288	 0	 1	-30	 30;
	 210	 26	 0.061818	 0.105041	 0.01014	 59	 59	 59	 0	 0	 1	-30	 30;
	 389	 38	 0.059256	 0.103967	 0.010481	 59	 59	 59	 0	 0	 1	-30	 30;
	 85	 28	 0.033058	 0.080992	 0.01007	 120	 120	 120	 0	 0	 1	-30	 30;
	 290	 81	 0.035537	 0.066124	 0.00765	 90	 90	 90	 0	 0	 1	-30	 30;
	 416	 80	 0.070248	 0.120661	 0.012901	 67	 67	 67	 0	 0	 1	-30	 30;
	 419	 53	 0.021488	 0.027273	 0.005111	 90	 90	 90	 0	 0	 0	-30	 30;
	 88	 214	 0.040496	 0.050413	 0.00719	 57	 57	 57	 0	 0	 1	-30	 30;
	 38	 83	 0.057016	 0.113223	 0.01232	 90	 90	 90	 0	 0	 1	-30	 30;
	 37	 60	 0.009917	 0.029752	 0.00356	 137	 137	 137	 0	 0	 1	-30	 30;
	 111	 259	 0.012397	 0.03719	 0.004361	 114	 114	 114	 0	 0	 0	-30	 30;
	 34	 32	 0.01	 0.026281	 0.002669	 120	 120	 120	 0	 0	 1	-30	 30;
	 32	 31	 0.028017	 0.061818	 0.00747	 120	 120	 120	 0	 0	 1	-30	 30;
	 30	 33	 0.014132	 0.037273	 0.004	 90	 90	 90	 0	 0	 1	-30	 30;
	 36	 35	 0.012984	 0.042149	 0.004361	 133	 133	 133	 0	 0	 1	-30	 30;
	 34	 29	 0.003141	 0.009421	 0.000961	 120	 120	 120	 0	 0	 1	-30	 30;
	 27	 30	 0.044297	 0.093471	 0.00876	 90	 90	 90	 0	 0	 1	-30	 30;
	 38	 35	 0.018934	 0.062479	 0.019319	 133	 133	 133	 0	 0	 1	-30	 30;
	 39	 38	 0.024215	 0.079339	 0.008027	 133	 133	 133	 0	 0	 1	-30	 30;
	 39	 30	 0.022231	 0.07281	 0.00735	 133	 133	 133	 0	 0	 1	-30	 30;
	 53	 103	 0.036116	 0.050413	 0.008291	 57	 57	 57	 0	 0	 1	-30	 30;
	 52	 53	 0	 8.3e-05	 1e-05	 29	 29	 29	 0	 0	 1	-30	 30;
	 60	 54	 0.016198	 0.049174	 0.00584	 114	 114	 114	 0	 0	 1	-30	 30;
	 59	 60	 0.000165	 0.000248	 4.4e-05	 90	 90	 90	 0	 0	 1	-30	 30;
	 146	 58	 0.019752	 0.05124	 0.005878	 90	 90	 90	 0	 0	 1	-30	 30;
	 101	 87	 0.021818	 0.065702	 0.007795	 90	 90	 90	 0	 0	 1	-30	 30;
	 120	 87	 0.036281	 0.070579	 0.007366	 90	 90	 90	 0	 0	 1	-30	 30;
	 108	 84	 0.013471	 0.043306	 0.004559	 114	 114	 114	 0	 0	 1	-30	 30;
	 130	 102	 0.014711	 0.02595	 0.002841	 57	 57	 57	 0	 0	 1	-30	 30;
	 143	 85	 0.003058	 0.00843	 0.001447	 114	 114	 114	 0	 0	 1	-30	 30;
	 129	 57	 0.026777	 0.063223	 0.007267	 57	 57	 57	 0	 0	 1	-30	 30;
	 119	 107	 0.031983	 0.102397	 0.010846	 114	 114	 114	 0	 0	 1	-30	 30;
	 85	 82	 0.036116	 0.11595	 0.012221	 114	 114	 114	 0	 0	 1	-30	 30;
	 74	 69	 0.063554	 0.129835	 0.012678	 90	 90	 90	 0	 0	 1	-30	 30;
	 125	 76	 0.030413	 0.056942	 0.00521	 57	 57	 57	 0	 0	 1	-30	 30;
	 148	 125	 0.099008	 0.200248	 0.017475	 90	 90	 90	 0	 0	 1	-30	 30;
	 124	 125	 0.001983	 0.003306	 0.000353	 19	 19	 19	 0	 0	 1	-30	 30;
	 95	 147	 0.016116	 0.028512	 0.002735	 90	 90	 90	 0	 0	 1	-30	 30;
	 148	 65	 0.022727	 0.072645	 0.007749	 57	 57	 57	 0	 0	 1	-30	 30;
	 73	 80	 0.096446	 0.194711	 0.017877	 90	 90	 90	 0	 0	 1	-30	 30;
	 41	 64	 0.018017	 0.054711	 0.006486	 57	 57	 57	 0	 0	 1	-30	 30;
	 76	 41	 0.012397	 0.037603	 0.004441	 57	 57	 57	 0	 0	 1	-30	 30;
	 41	 40	 0.016529	 0.027273	 0.002948	 19	 19	 19	 0	 0	 1	-30	 30;
	 76	 104	 0.014545	 0.025124	 0.003572	 57	 57	 57	 0	 0	 1	-30	 30;
	 74	 72	 0.006612	 0.021074	 0.002248	 114	 114	 114	 0	 0	 1	-30	 30;
	 79	 73	 0.016364	 0.052149	 0.005588	 140	 140	 140	 0	 0	 1	-30	 30;
	 105	 73	 0.019504	 0.035537	 0.009019	 114	 114	 114	 0	 0	 1	-30	 30;
	 61	 74	 0.001322	 0.002314	 0.000242	 57	 57	 57	 0	 0	 1	-30	 30;
	 62	 73	 0.001322	 0.002314	 0.000242	 57	 57	 57	 0	 0	 1	-30	 30;
	 116	 74	 0.02843	 0.074132	 0.006752	 90	 90	 90	 0	 0	 1	-30	 30;
	 147	 116	 0.037769	 0.073802	 0.00657	 90	 90	 90	 0	 0	 1	-30	 30;
	 116	 114	 0.003306	 0.005455	 0.000581	 19	 19	 19	 0	 0	 1	-30	 30;
	 148	 90	 0.038182	 0.074876	 0.00666	 90	 90	 90	 0	 0	 1	-30	 30;
	 115	 73	 0.02843	 0.074132	 0.006752	 90	 90	 90	 0	 0	 1	-30	 30;
	 91	 115	 0.005207	 0.009835	 0.000956	 90	 90	 90	 0	 0	 1	-30	 30;
	 115	 113	 0.003306	 0.005455	 0.000581	 19	 19	 19	 0	 0	 1	-30	 30;
	 89	 87	 0.040496	 0.066694	 0.007214	 57	 57	 57	 0	 0	 1	-30	 30;
	 146	 105	 0.024463	 0.061322	 0.006793	 114	 114	 114	 0	 0	 1	-30	 30;
	 146	 106	 0.024463	 0.061322	 0.006793	 114	 114	 114	 0	 0	 1	-30	 30;
	 47	 93	 0.024793	 0.065454	 0.006614	 114	 114	 114	 0	 0	 1	-30	 30;
	 146	 128	 0.001074	 0.003471	 0.00037	 114	 114	 114	 0	 0	 1	-30	 30;
	 140	 86	 0.030744	 0.050661	 0.005474	 57	 57	 57	 0	 0	 1	-30	 30;
	 94	 147	 0.002314	 0.007438	 0.000799	 114	 114	 114	 0	 0	 1	-30	 30;
	 73	 66	 0.01124	 0.036116	 0.003816	 114	 114	 114	 0	 0	 1	-30	 30;
	 92	 86	 0.007769	 0.021736	 0.002362	 114	 114	 114	 0	 0	 1	-30	 30;
	 141	 100	 0.05	 0.082397	 0.008901	 57	 57	 57	 0	 0	 1	-30	 30;
	 106	 49	 0.026033	 0.065702	 0.007335	 114	 114	 114	 0	 0	 1	-30	 30;
	 118	 99	 0.042397	 0.069917	 0.00755	 57	 57	 57	 0	 0	 1	-30	 30;
	 43	 55	 0.00438	 0.014876	 0.001423	 114	 114	 114	 0	 0	 1	-30	 30;
	 131	 105	 0.025372	 0.062562	 0.006924	 114	 114	 114	 0	 0	 1	-30	 30;
	 138	 70	 0.013306	 0.040413	 0.004804	 57	 57	 57	 0	 0	 1	-30	 30;
	 55	 74	 0.01	 0.068512	 0.007647	 232	 232	 232	 0	 0	 1	-30	 30;
	 56	 132	 0.005868	 0.040083	 0.004518	 232	 232	 232	 0	 0	 1	-30	 30;
	 67	 71	 0.006281	 0.019835	 0.00218	 114	 114	 114	 0	 0	 1	-30	 30;
	 56	 68	 0.009421	 0.041736	 0.004576	 114	 114	 114	 0	 0	 1	-30	 30;
	 135	 71	 0.002149	 0.007273	 0.000758	 57	 57	 57	 0	 0	 1	-30	 30;
	 134	 72	 0.002149	 0.00719	 0.000753	 57	 57	 57	 0	 0	 1	-30	 30;
	 117	 42	 0.033058	 0.05686	 0.006142	 90	 90	 90	 0	 0	 1	-30	 30;
	 121	 44	 0.017769	 0.058016	 0.005917	 57	 57	 57	 0	 0	 1	-30	 30;
	 105	 46	 0.022479	 0.054545	 0.00621	 114	 114	 114	 0	 0	 1	-30	 30;
	 63	 69	 0.014545	 0.04405	 0.00522	 57	 57	 57	 0	 0	 1	-30	 30;
	 112	 76	 0.029917	 0.096116	 0.010188	 57	 57	 57	 0	 0	 1	-30	 30;
	 74	 137	 0.011157	 0.034545	 0.003903	 114	 114	 114	 0	 0	 1	-30	 30;
	 110	 127	 0.034628	 0.108843	 0.01203	 114	 114	 114	 0	 0	 1	-30	 30;
	 123	 55	 0.021074	 0.067686	 0.007149	 114	 114	 114	 0	 0	 1	-30	 30;
	 81	 123	 0.030413	 0.09438	 0.010721	 114	 114	 114	 0	 0	 1	-30	 30;
	 122	 123	 0.007603	 0.036364	 0.006795	 114	 114	 114	 0	 0	 1	-30	 30;
	 126	 56	 0.014711	 0.046529	 0.005092	 114	 114	 114	 0	 0	 1	-30	 30;
	 109	 80	 0.010248	 0.03124	 0.003698	 57	 57	 57	 0	 0	 1	-30	 30;
	 133	 73	 0.004628	 0.031736	 0.003586	 232	 232	 232	 0	 0	 1	-30	 30;
	 145	 78	 0.003388	 0.010331	 0.00121	 114	 114	 114	 0	 0	 1	-30	 30;
	 55	 144	 0.003306	 0.022479	 0.002502	 114	 114	 114	 0	 0	 1	-30	 30;
	 105	 55	 0.03438	 0.110579	 0.011626	 114	 114	 114	 0	 0	 1	-30	 30;
	 106	 56	 0.03438	 0.110579	 0.011628	 114	 114	 114	 0	 0	 1	-30	 30;
	 136	 75	 0.017025	 0.053058	 0.005936	 114	 114	 114	 0	 0	 1	-30	 30;
	 77	 50	 0.082314	 0.150413	 0.014297	 57	 57	 57	 0	 0	 1	-30	 30;
	 81	 69	 0.04719	 0.089008	 0.008707	 57	 57	 57	 0	 0	 1	-30	 30;
	 44	 77	 0.013636	 0.043967	 0.004617	 114	 114	 114	 0	 0	 1	-30	 30;
	 96	 105	 0.000826	 0.001653	 0	 229	 229	 229	 0	 0	 1	-30	 30;
	 97	 106	 0.000826	 0.001653	 0	 229	 229	 229	 0	 0	 1	-30	 30;
	 98	 105	 0.001157	 0.002066	 0	 229	 229	 229	 0	 0	 1	-30	 30;
	 392	 192	 0.058934	 0.123967	 0.011969	 78	 78	 78	 0	 0	 1	-30	 30;
	 328	 423	 0.03843	 0.06562	 0.006609	 78	 78	 78	 0	 0	 0	-30	 30;
	 352	 153	 0.02486	 0.043479	 0.00415	 120	 120	 120	 0	 0	 1	-30	 30;
	 404	 352	 0.022628	 0.03957	 0.00378	 120	 120	 120	 0	 0	 1	-30	 30;
	 347	 368	 0.020661	 0.06686	 0.006921	 82	 82	 82	 0	 0	 1	-30	 30;
	 252	 281	 0.059669	 0.104554	 0.009951	 59	 59	 59	 0	 0	 1	-30	 30;
	 164	 430	 0.027107	 0.046124	 0.00445	 78	 78	 78	 0	 0	 1	-30	 30;
	 342	 430	 0.033661	 0.114017	 0.011289	 123	 123	 123	 0	 0	 1	-30	 30;
	 250	 306	 0.024967	 0.08457	 0.008371	 105	 105	 105	 0	 0	 1	-30	 30;
	 356	 291	 0.032041	 0.108521	 0.01074	 105	 105	 105	 0	 0	 1	-30	 30;
	 357	 314	 0.016124	 0.05281	 0.005411	 114	 114	 114	 0	 0	 1	-30	 30;
	 197	 332	 0.016603	 0.056231	 0.005571	 10	 10	 10	 0	 0	 1	-30	 30;
	 301	 257	 0.104132	 0.168512	 0.01897	 78	 78	 78	 0	 0	 1	-30	 30;
	 300	 403	 0.033058	 0.049587	 0.00605	 76	 76	 76	 0	 0	 1	-30	 30;
	 403	 217	 0.1	 0.165289	 0.01822	 76	 76	 76	 0	 0	 1	-30	 30;
	 270	 403	 0.015703	 0.046281	 0.005009	 76	 76	 76	 0	 0	 1	-30	 30;
	 290	 167	 0.033802	 0.055372	 0.005951	 67	 67	 67	 0	 0	 0	-30	 30;
	 290	 200	 0.015703	 0.046281	 0.005009	 69	 69	 69	 0	 0	 1	-30	 30;
	 258	 216	 0.028934	 0.047107	 0.0053	 78	 78	 78	 0	 0	 1	-30	 30;
	 400	 396	 0.000554	 0.001818	 0.026831	 118	 118	 118	 0	 0	 1	-30	 30;
	 355	 168	 0.011983	 0.040562	 0.00401	 123	 123	 123	 0	 0	 1	-30	 30;
	 324	 390	 0.002661	 0.009017	 0.000891	 123	 123	 123	 0	 0	 1	-30	 30;
	 325	 391	 0.002661	 0.009017	 0.000891	 123	 123	 123	 0	 0	 1	-30	 30;
	 388	 217	 0.003314	 0.005793	 0.00061	 78	 78	 78	 0	 0	 1	-30	 30;
	 397	 388	 0.009917	 0.022314	 0.00242	 78	 78	 78	 0	 0	 1	-30	 30;
	 390	 216	 0.02562	 0.043802	 0.00455	 78	 78	 78	 0	 0	 1	-30	 30;
	 390	 168	 0.004132	 0.006612	 0.000731	 78	 78	 78	 0	 0	 1	-30	 30;
	 396	 391	 0.018182	 0.035537	 0.003901	 78	 78	 78	 0	 0	 1	-30	 30;
	 391	 167	 0.004132	 0.006612	 0.000731	 78	 78	 78	 0	 0	 1	-30	 30;
	 414	 299	 0.008769	 0.029686	 0.00294	 123	 123	 123	 0	 0	 1	-30	 30;
	 355	 414	 0.004446	 0.01505	 0.001491	 123	 123	 123	 0	 0	 1	-30	 30;
	 395	 414	 0.004967	 0.016827	 0.00167	 123	 123	 123	 0	 0	 1	-30	 30;
	 321	 167	 0.015703	 0.047934	 0.00515	 123	 123	 123	 0	 0	 1	-30	 30;
	 321	 298	 0.007438	 0.023967	 0.00257	 123	 123	 123	 0	 0	 1	-30	 30;
	 401	 371	 0.015703	 0.027273	 0.00264	 123	 123	 123	 0	 0	 1	-30	 30;
	 394	 298	 0.007438	 0.02562	 0.002781	 123	 123	 123	 0	 0	 1	-30	 30;
	 394	 381	 0.001653	 0.004132	 0.000409	 123	 123	 123	 0	 0	 1	-30	 30;
	 401	 381	 0.009091	 0.028099	 0.003071	 123	 123	 123	 0	 0	 1	-30	 30;
	 382	 299	 0.009091	 0.029752	 0.00319	 123	 123	 123	 0	 0	 1	-30	 30;
	 382	 372	 0.009091	 0.028099	 0.003071	 123	 123	 123	 0	 0	 1	-30	 30;
	 298	 288	 0.023141	 0.058678	 0.00574	 102	 102	 102	 0	 0	 1	-30	 30;
	 358	 299	 0.013719	 0.044463	 0.00439	 123	 123	 123	 0	 0	 1	-30	 30;
	 299	 291	 0.022314	 0.071818	 0.00702	 123	 123	 123	 0	 0	 1	-30	 30;
	 415	 299	 0.024893	 0.084322	 0.008349	 120	 120	 120	 0	 0	 1	-30	 30;
	 379	 415	 0.01362	 0.046124	 0.004569	 120	 120	 120	 0	 0	 1	-30	 30;
	 330	 298	 0.029496	 0.099901	 0.009891	 123	 123	 123	 0	 0	 1	-30	 30;
	 200	 283	 0.007521	 0.012562	 0.0013	 57	 57	 57	 0	 0	 1	-30	 30;
	 358	 281	 0.062149	 0.105041	 0.01058	 78	 78	 78	 0	 0	 1	-30	 30;
	 423	 288	 0.039669	 0.069421	 0.00666	 78	 78	 78	 0	 0	 1	-30	 30;
	 399	 371	 0.004959	 0.015703	 0.000801	 78	 78	 78	 0	 0	 1	-30	 30;
	 410	 168	 0.01438	 0.02405	 0.00249	 78	 78	 78	 0	 0	 1	-30	 30;
...
];

mpc_regionR1.gencost = [
%	2           startup     shutdown    n           c(n-1)...c0 
	 2	 0	 0	 3	 0	 90.03	 0;
	 2	 0	 0	 3	 0	 90.03	 0;
	 2	 0	 0	 3	 0	 98.84	 0;
	 2	 0	 0	 3	 0	 98.84	 0;
	 2	 0	 0	 3	 0	 98.84	 0;
	 2	 0	 0	 3	 0	 98.84	 0;
	 2	 0	 0	 3	 0	 98.84	 0;
	 2	 0	 0	 3	 0	 98.84	 0;
	 2	 0	 0	 3	 0	 98.84	 0;
	 2	 0	 0	 3	 0	 98.84	 0;
	 2	 0	 0	 3	 0	 98.84	 0;
	 2	 0	 0	 3	 0	 0	 0;
	 2	 0	 0	 3	 0	 0	 0;
	 2	 0	 0	 3	 0	 90.03	 0;
	 2	 0	 0	 3	 0	 90.03	 0;
	 2	 0	 0	 3	 0	 0	 0;
	 2	 0	 0	 3	 0	 0	 0;
	 2	 0	 0	 3	 0	 0	 0;
	 2	 0	 0	 3	 0	 0	 0;
	 2	 0	 0	 3	 0	 0	 0;
	 2	 0	 0	 3	 0	 0	 0;
	 2	 0	 0	 3	 0	 0	 0;
	 2	 0	 0	 3	 0	 0	 0;
	 2	 0	 0	 3	 0	 0	 0;
	 2	 0	 0	 3	 0	 0	 0;
	 2	 0	 0	 3	 0	 0	 0;
	 2	 0	 0	 3	 0	 0	 0;
	 2	 0	 0	 3	 0	 0	 0;
	 2	 0	 0	 3	 0	 0	 0;
	 2	 0	 0	 3	 0	 0	 0;
	 2	 0	 0	 3	 0	 0	 0;
	 2	 0	 0	 3	 0	 0	 0;
	 2	 0	 0	 3	 0	 0	 0;
	 2	 0	 0	 3	 0	 0	 0;
	 2	 0	 0	 3	 0	 0	 0;
	 2	 0	 0	 3	 0	 0	 0;
	 2	 0	 0	 3	 0	 98.84	 0;
	 2	 0	 0	 3	 0	 0	 0;
	 2	 0	 0	 3	 0	 0	 0;
	 2	 0	 0	 3	 0	 0	 0;
	 2	 0	 0	 3	 0	 0	 0;
	 2	 0	 0	 3	 0	 0	 0;
	 2	 0	 0	 3	 0	 0	 0;
	 2	 0	 0	 3	 0	 0	 0;
	 2	 0	 0	 3	 0	 0	 0;
	 2	 0	 0	 3	 0	 0	 0;
];


% -------------------- mpc_regionR2 --------------------

mpc_regionR2.version = '2';
mpc_regionR2.baseMVA = 100.0000;
mpc_regionR2.bus = [
%	bus_i       type        Pd          Qd          Gs          Bs          area        Vm          Va          baseKV      zone        Vmax        Vmin        
	 1	 1	 0	 0	 0	 0	 1	 1.03	 0	 220	 4	 1.11	 0.95;
	 2	 1	 0	 0	 0	 0	 1	 1.03	 0	 220	 4	 1.11	 0.95;
	 3	 1	 0	 0	 0	 0	 1	 1.03	 0	 220	 4	 1.11	 0.95;
	 4	 1	 0	 0	 0	 0	 1	 1.03	 0	 220	 4	 1.11	 0.95;
	 5	 2	 38.23	 12.9	 0	 0	 1	 1.03	 0	 220	 4	 1.11	 0.95;
	 6	 1	 0	 0	 0	 0	 1	 1.03	 0	 220	 4	 1.11	 0.95;
	 7	 2	 16.46	 12	 0	 0	 1	 1	 0	 400	 4	 1.05	 0.95;
	 8	 2	 17.83	 13.7	 0	 0	 1	 1	 0	 400	 4	 1.05	 0.95;
	 9	 1	 0	 0	 0	 0	 1	 1.03	 0	 220	 4	 1.11	 0.95;
	 10	 1	 0	 0	 0	 0	 1	 1.03	 0	 220	 4	 1.11	 0.95;
	 11	 1	 0	 0	 0	 0	 1	 1.03	 0	 220	 4	 1.11	 0.95;
	 12	 1	 0	 0	 0	 0	 1	 1.03	 0	 220	 4	 1.11	 0.95;
	 13	 1	 0	 0	 0	 0	 1	 1.03	 0	 220	 4	 1.11	 0.95;
	 14	 1	 0	 0	 0	 0	 1	 1.03	 0	 220	 4	 1.11	 0.95;
	 15	 1	 0	 0	 0	 0	 1	 1.03	 0	 220	 4	 1.11	 0.95;
	 16	 1	 0	 0	 0	 0	 1	 1.03	 0	 220	 4	 1.11	 0.95;
	 17	 1	 0	 0	 0	 0	 1	 1	 0	 400	 4	 1.05	 0.95;
	 18	 1	 0	 0	 0	 0	 1	 1	 0	 400	 4	 1.05	 0.95;
	 19	 1	 0	 0	 0	 0	 1	 1.03	 0	 220	 4	 1.11	 0.95;
	 20	 2	 4.68	 1.5	 0	 0	 1	 1.03	 0	 220	 4	 1.11	 0.95;
	 21	 1	 0	 0	 0	 0	 1	 1.03	 0	 220	 5	 1.11	 0.95;
	 22	 1	 0	 0	 0	 0	 1	 1	 0	 400	 5	 1.05	 0.95;
	 23	 1	 0	 0	 0	 0	 1	 1	 0	 400	 5	 1.05	 0.95;
	 24	 1	 0	 0	 0	 0	 1	 1.03	 0	 220	 5	 1.11	 0.95;
	 25	 1	 0	 0	 0	-117	 1	 1	 0	 400	 5	 1.05	 0.95;
	 26	 1	 0	 0	 0	 0	 1	 1	 0	 400	 5	 1.05	 0.95;
	 27	 2	 0	 0	 0	 0	 1	 1	 0	 400	 5	 1.05	 0.95;
	 28	 1	 0	 0	 0	 0	 1	 1.03	 0	 220	 5	 1.11	 0.95;
	 29	 1	 0	 0	 0	 0	 1	 1.03	 0	 220	 5	 1.11	 0.95;
	 30	 1	 19.38	 2.24	 0	 0	 1	 1.035	 0	 110	 4	 1.12	 0.95;
	 31	 1	 5.45	-0.73	 0	 0	 1	 1.035	 0	 110	 4	 1.12	 0.95;
	 32	 1	 7.28	 0.04	 0	 0	 1	 1.035	 0	 110	 4	 1.12	 0.95;
	 33	 1	 20.5	 2.22	 0	 0	 1	 1.035	 0	 110	 4	 1.12	 0.95;
	 34	 1	 6.33	-0.99	 0	 0	 1	 1.035	 0	 110	 4	 1.12	 0.95;
	 35	 1	 0	 0	 0	 0	 1	 1.035	 0	 110	 4	 1.12	 0.95;
	 36	 1	 8.38	 0.58	 0	 0	 1	 1.035	 0	 110	 4	 1.12	 0.95;
	 37	 1	 16.74	 2.65	 0	 0	 1	 1.035	 0	 110	 4	 1.12	 0.95;
	 38	 1	 1.03	-1.13	 0	 0	 1	 1.035	 0	 110	 4	 1.12	 0.95;
	 39	 1	 0.7	-0.02	 0	 0	 1	 1.035	 0	 110	 4	 1.12	 0.95;
	 40	 1	 0	 0	 0	 0	 1	 1.035	 0	 110	 4	 1.12	 0.95;
	 41	 1	 11.89	 0.7	 0	 0	 1	 1.035	 0	 110	 4	 1.12	 0.95;
	 42	 1	 14.28	-0.09	 0	 0	 1	 1.035	 0	 110	 4	 1.12	 0.95;
	 43	 1	 5.16	-0.03	 0	 0	 1	 1.035	 0	 110	 4	 1.12	 0.95;
	 44	 1	 6.19	-0.12	 0	 0	 1	 1.035	 0	 110	 4	 1.12	 0.95;
	 45	 1	 1.18	-2.1	 0	 0	 1	 1.035	 0	 110	 4	 1.12	 0.95;
	 46	 1	 7.94	 0.25	 0	 0	 1	 1.035	 0	 110	 4	 1.12	 0.95;
	 47	 1	 20.26	 1.78	 0	 0	 1	 1.035	 0	 110	 4	 1.12	 0.95;
	 48	 1	 2.47	 0.65	 0	 0	 1	 1.035	 0	 110	 4	 1.12	 0.95;
	 49	 1	 7.66	-1.16	 0	 0	 1	 1.035	 0	 110	 4	 1.12	 0.95;
	 50	 1	 3.43	 0.58	 0	 0	 1	 1.035	 0	 110	 4	 1.12	 0.95;
	 51	 1	 15.86	 0.98	 0	 0	 1	 1.035	 0	 110	 4	 1.12	 0.95;
	 52	 1	 16.32	 1.75	 0	 0	 1	 1.035	 0	 110	 4	 1.12	 0.95;
	 53	 1	 5.16	 0.36	 0	 0	 1	 1.035	 0	 110	 4	 1.12	 0.95;
	 54	 1	 4.85	 0.06	 0	 0	 1	 1.035	 0	 110	 4	 1.12	 0.95;
	 55	 1	 5.89	-0.15	 0	 0	 1	 1.035	 0	 110	 4	 1.12	 0.95;
	 56	 1	 10.82	 2.31	 0	 0	 1	 1.035	 0	 110	 4	 1.12	 0.95;
	 57	 2	 25.46	 7.9	 0	 0	 1	 1.035	 0	 110	 4	 1.12	 0.95;
	 58	 1	 0	 0	 0	 0	 1	 1.035	 0	 110	 4	 1.12	 0.95;
	 59	 1	 3.85	 0.08	 0	 0	 1	 1.035	 0	 110	 4	 1.12	 0.95;
	 60	 1	 3.2	 0.07	 0	 0	 1	 1.035	 0	 110	 4	 1.12	 0.95;
	 61	 1	 9.57	-0.51	 0	 0	 1	 1.035	 0	 110	 4	 1.12	 0.95;
	 62	 2	 0.4	 0.16	 0	 0	 1	 1.035	 0	 110	 4	 1.12	 0.95;
	 63	 1	 0	 0	 0	 0	 1	 1.035	 0	 110	 4	 1.12	 0.95;
	 64	 2	 7.72	 4.08	 0	 0	 1	 1.035	 0	 110	 4	 1.12	 0.95;
	 65	 2	 19.82	 8	 0	 0	 1	 1.035	 0	 110	 4	 1.12	 0.95;
	 66	 1	 9.26	 1.41	 0	 0	 1	 1.035	 0	 110	 4	 1.12	 0.95;
	 67	 1	 0	 0	 0	 0	 1	 1.035	 0	 110	 4	 1.12	 0.95;
	 68	 1	 7.71	 0.9	 0	 0	 1	 1.035	 0	 110	 4	 1.12	 0.95;
	 69	 1	 6.61	 1.2	 0	 0	 1	 1.035	 0	 110	 4	 1.12	 0.95;
	 70	 2	 7.36	 1.67	 0	 0	 1	 1.035	 0	 110	 4	 1.12	 0.95;
	 71	 1	 7.71	 1.2	 0	 0	 1	 1.035	 0	 110	 4	 1.12	 0.95;
	 72	 1	 0	 0	 0	 0	 1	 1.035	 0	 110	 4	 1.12	 0.95;
	 73	 1	 15.21	 1.83	 0	 0	 1	 1.035	 0	 110	 4	 1.12	 0.95;
	 74	 2	 49.78	 8	 0	 0	 1	 1.035	 0	 110	 4	 1.12	 0.95;
	 75	 2	 2.35	 0	 0	 0	 1	 1.035	 0	 110	 4	 1.12	 0.95;
	 76	 1	 10.37	 0.16	 0	 0	 1	 1.035	 0	 110	 4	 1.12	 0.95;
	 77	 1	 6.17	 0.58	 0	 0	 1	 1.035	 0	 110	 4	 1.12	 0.95;
	 78	 1	 6.62	 1.4	 0	 0	 1	 1.035	 0	 110	 4	 1.12	 0.95;
	 79	 1	 11.34	-1.15	 0	 0	 1	 1.035	 0	 110	 4	 1.12	 0.95;
	 80	 1	 17.65	 3.39	 0	 0	 1	 1.035	 0	 110	 4	 1.12	 0.95;
	 81	 1	 13.23	 1.23	 0	 0	 1	 1.035	 0	 110	 4	 1.12	 0.95;
	 82	 1	 9.26	 1.18	 0	 0	 1	 1.035	 0	 110	 4	 1.12	 0.95;
	 83	 1	 4.41	-1.34	 0	 0	 1	 1.035	 0	 110	 4	 1.12	 0.95;
	 84	 1	 24.28	 2.02	 0	 0	 1	 1.035	 0	 110	 4	 1.12	 0.95;
	 85	 1	 4.41	 0.67	 0	 0	 1	 1.035	 0	 110	 4	 1.12	 0.95;
	 86	 1	 4.85	 0.98	 0	 0	 1	 1.035	 0	 110	 4	 1.12	 0.95;
	 87	 1	 14.31	 3.38	 0	 0	 1	 1.035	 0	 110	 4	 1.12	 0.95;
	 88	 1	 15.44	 1.54	 0	 0	 1	 1.035	 0	 110	 4	 1.12	 0.95;
	 89	 1	 18.06	 1.95	 0	 0	 1	 1.035	 0	 110	 4	 1.12	 0.95;
	 90	 2	 5.22	 1.23	 0	 0	 1	 1.035	 0	 110	 4	 1.12	 0.95;
	 91	 1	 20.7	 4.33	 0	 0	 1	 1.035	 0	 110	 4	 1.12	 0.95;
	 92	 1	 23.57	 3.45	 0	 0	 1	 1.035	 0	 110	 4	 1.12	 0.95;
	 93	 1	 16.12	 1.28	 0	 0	 1	 1.035	 0	 110	 4	 1.12	 0.95;
	 94	 1	 20.79	 3.77	 0	 0	 1	 1.035	 0	 110	 4	 1.12	 0.95;
	 95	 1	 0	 0	 0	 0	 1	 1.035	 0	 110	 4	 1.12	 0.95;
	 96	 2	 60.57	 10.19	 0	 0	 1	 1.035	 0	 110	 4	 1.12	 0.95;
	 97	 1	 17.18	 2.54	 0	 0	 1	 1.035	 0	 110	 4	 1.12	 0.95;
	 98	 1	 6.61	 0.27	 0	 0	 1	 1.035	 0	 110	 4	 1.12	 0.95;
	 99	 1	 2.5	-0.19	 0	 0	 1	 1.035	 0	 110	 4	 1.12	 0.95;
	 100	 1	 3.9	 0.29	 0	 0	 1	 1.035	 0	 110	 4	 1.12	 0.95;
	 101	 1	 0	 0	 0	 0	 1	 1.035	 0	 110	 4	 1.12	 0.95;
	 102	 1	 0	 0	 0	 0	 1	 1.035	 0	 110	 4	 1.12	 0.95;
	 103	 1	 1.03	 0	 0	 0	 1	 1.035	 0	 110	 4	 1.12	 0.95;
	 104	 1	 5.74	-0.2	 0	 0	 1	 1.035	 0	 110	 4	 1.12	 0.95;
	 105	 1	 6.83	 0.75	 0	 0	 1	 1.035	 0	 110	 4	 1.12	 0.95;
	 106	 1	 8.42	-2.51	 0	 0	 1	 1.035	 0	 110	 4	 1.12	 0.95;
	 107	 1	 5.76	-0.14	 0	 0	 1	 1.035	 0	 110	 4	 1.12	 0.95;
	 108	 1	 9.47	 74.35	 0	 0	 1	 1.035	 0	 110	 4	 1.12	 0.95;
	 109	 1	 5.73	 1	 0	 0	 1	 1.035	 0	 110	 4	 1.12	 0.95;
	 110	 1	 1.54	 0.36	 0	 0	 1	 1.035	 0	 110	 4	 1.12	 0.95;
	 111	 1	 5.96	 0.16	 0	 0	 1	 1.035	 0	 110	 4	 1.12	 0.95;
	 112	 1	 9.14	-0.87	 0	 0	 1	 1.035	 0	 110	 4	 1.12	 0.95;
	 113	 1	 9.91	 0.54	 0	 0	 1	 1.035	 0	 110	 4	 1.12	 0.95;
	 114	 1	 14.56	 1.79	 0	 0	 1	 1.035	 0	 110	 4	 1.12	 0.95;
	 115	 1	 6.39	 1	 0	 0	 1	 1.035	 0	 110	 4	 1.12	 0.95;
	 116	 1	 16.08	 3.02	 0	 0	 1	 1.035	 0	 110	 4	 1.12	 0.95;
	 117	 1	 4.63	 0.83	 0	 0	 1	 1.035	 0	 110	 4	 1.12	 0.95;
	 118	 1	 7.72	 0.43	 0	 0	 1	 1.035	 0	 110	 4	 1.12	 0.95;
	 119	 1	 8.99	-1.03	 0	 0	 1	 1.035	 0	 110	 4	 1.12	 0.95;
	 120	 1	 8.81	 2.43	 0	 0	 1	 1.035	 0	 110	 4	 1.12	 0.95;
	 121	 1	 3.74	 0.1	 0	 0	 1	 1.035	 0	 110	 4	 1.12	 0.95;
	 122	 1	 12.11	 3.38	 0	 0	 1	 1.035	 0	 110	 4	 1.12	 0.95;
	 123	 1	 16.3	 2.38	 0	 0	 1	 1.035	 0	 110	 4	 1.12	 0.95;
	 124	 1	 10.79	 1.4	 0	 0	 1	 1.035	 0	 110	 4	 1.12	 0.95;
	 125	 1	 2.93	-0.34	 0	 0	 1	 1.035	 0	 110	 4	 1.12	 0.95;
	 126	 1	 23.78	 3.99	 0	 0	 1	 1.035	 0	 110	 4	 1.12	 0.95;
	 127	 1	 3.39	-0.27	 0	 0	 1	 1.035	 0	 110	 4	 1.12	 0.95;
	 128	 1	 8.4	-1.34	 0	 0	 1	 1.035	 0	 110	 4	 1.12	 0.95;
	 129	 1	 5.31	-0.16	 0	 0	 1	 1.035	 0	 110	 4	 1.12	 0.95;
	 130	 1	 3.53	-0.46	 0	 0	 1	 1.035	 0	 110	 4	 1.12	 0.95;
	 131	 2	 2.32	-0.88	 0	 0	 1	 1.035	 0	 110	 4	 1.12	 0.95;
	 132	 1	 5.6	-0.95	 0	 0	 1	 1.035	 0	 110	 4	 1.12	 0.95;
	 133	 1	 4.41	 1.01	 0	 0	 1	 1.035	 0	 110	 4	 1.12	 0.95;
	 134	 1	 10.36	 0.89	 0	 0	 1	 1.035	 0	 110	 4	 1.12	 0.95;
	 135	 2	 21.56	 1.88	 0	 0	 1	 1.035	 0	 110	 4	 1.12	 0.95;
	 136	 1	 14.99	 0.6	 0	 0	 1	 1.035	 0	 110	 4	 1.12	 0.95;
	 137	 1	 17.84	 2.05	 0	 0	 1	 1.035	 0	 110	 4	 1.12	 0.95;
	 138	 1	 0	 0	 0	 0	 1	 1.035	 0	 110	 4	 1.12	 0.95;
	 139	 1	 0	 0	 0	 0	 1	 1.035	 0	 110	 4	 1.12	 0.95;
	 140	 2	 61.93	 5.14	 0	 0	 1	 1.035	 0	 110	 4	 1.12	 0.95;
	 141	 1	 29.53	 4.56	 0	 0	 1	 1.035	 0	 110	 4	 1.12	 0.95;
	 142	 1	 0	 0	 0	 0	 1	 1.035	 0	 110	 4	 1.12	 0.95;
	 143	 1	 0	 0	 0	 0	 1	 1.035	 0	 110	 4	 1.12	 0.95;
	 144	 1	 4.72	-1.56	 0	 0	 1	 1.035	 0	 110	 4	 1.12	 0.95;
	 145	 1	 18.53	 1.67	 0	 0	 1	 1.035	 0	 110	 4	 1.12	 0.95;
	 146	 1	 18.5	 0.53	 0	 0	 1	 1.035	 0	 110	 4	 1.12	 0.95;
	 147	 1	 13.44	 0.66	 0	 0	 1	 1.035	 0	 110	 4	 1.12	 0.95;
	 148	 1	 0	 0	 0	 0	 1	 1.035	 0	 110	 4	 1.12	 0.95;
	 149	 1	 5.74	-0.6	 0	 0	 1	 1.035	 0	 110	 4	 1.12	 0.95;
	 150	 1	 17.62	 4.08	 0	 0	 1	 1.035	 0	 110	 4	 1.12	 0.95;
	 151	 2	 7.86	 1.7	 0	 0	 1	 1.035	 0	 110	 4	 1.12	 0.95;
	 152	 2	 9.03	 4.1	 0	 0	 1	 1.035	 0	 110	 4	 1.12	 0.95;
	 153	 1	 14.09	 1.41	 0	 0	 1	 1.035	 0	 110	 4	 1.12	 0.95;
	 154	 1	 17.18	 1.49	 0	 0	 1	 1.035	 0	 110	 4	 1.12	 0.95;
	 155	 1	 5.95	 1.04	 0	 0	 1	 1.035	 0	 110	 4	 1.12	 0.95;
	 156	 1	 10.79	 0.57	 0	 0	 1	 1.035	 0	 110	 4	 1.12	 0.95;
	 157	 1	 23.57	 2.55	 0	 0	 1	 1.035	 0	 110	 4	 1.12	 0.95;
	 158	 1	 9.91	 0.6	 0	 0	 1	 1.035	 0	 110	 4	 1.12	 0.95;
	 159	 1	 10.57	 1.3	 0	 0	 1	 1.035	 0	 110	 4	 1.12	 0.95;
	 160	 1	 13.44	 1.2	 0	 0	 1	 1.035	 0	 110	 4	 1.12	 0.95;
	 161	 1	 9.93	 2.72	 0	 0	 1	 1.035	 0	 110	 4	 1.12	 0.95;
	 162	 2	 21.34	 2.35	 0	 0	 1	 1.035	 0	 110	 4	 1.12	 0.95;
	 163	 1	 0	 0	 0	 0	 1	 1.035	 0	 110	 4	 1.12	 0.95;
	 164	 1	 14.75	 0.2	 0	 0	 1	 1.035	 0	 110	 4	 1.12	 0.95;
	 165	 1	 3.97	 0.8	 0	 0	 1	 1.035	 0	 110	 4	 1.12	 0.95;
	 166	 1	 6.48	-1.22	 0	 0	 1	 1.035	 0	 110	 4	 1.12	 0.95;
	 167	 1	 6.93	-0.46	 0	 0	 1	 1.035	 0	 110	 4	 1.12	 0.95;
	 168	 1	 9.13	 0.21	 0	 0	 1	 1.035	 0	 110	 4	 1.12	 0.95;
	 169	 1	 0	 0	 0	 0	 1	 1.035	 0	 110	 4	 1.12	 0.95;
	 170	 1	 11.01	 2.86	 0	 0	 1	 1.035	 0	 110	 4	 1.12	 0.95;
	 171	 2	 14.84	-3.17	 0	 0	 1	 1.035	 0	 110	 4	 1.12	 0.95;
	 172	 1	 12.85	-3	 0	 0	 1	 1.035	 0	 110	 4	 1.12	 0.95;
	 173	 2	 8.17	 1.07	 0	 0	 1	 1.035	 0	 110	 4	 1.12	 0.95;
	 174	 1	 15.18	-1.11	 0	 0	 1	 1.035	 0	 110	 4	 1.12	 0.95;
	 175	 1	 15.86	 0.12	 0	 0	 1	 1.035	 0	 110	 4	 1.12	 0.95;
	 176	 1	 10.15	 1.52	 0	 0	 1	 1.035	 0	 110	 4	 1.12	 0.95;
	 177	 1	 9.04	 0.5	 0	 0	 1	 1.035	 0	 110	 4	 1.12	 0.95;
	 178	 1	 25.99	 3.74	 0	 0	 1	 1.035	 0	 110	 4	 1.12	 0.95;
	 179	 1	 20.73	 2.28	 0	 0	 1	 1.035	 0	 110	 4	 1.12	 0.95;
	 180	 1	 0	 0	 0	 0	 1	 1.035	 0	 110	 4	 1.12	 0.95;
	 181	 1	 1.1	 0.2	 0	 0	 1	 1.035	 0	 110	 4	 1.12	 0.95;
	 182	 1	 16.76	 1.53	 0	 0	 1	 1.035	 0	 110	 4	 1.12	 0.95;
	 183	 2	 9.42	 0	 0	 0	 1	 1.035	 0	 110	 4	 1.12	 0.95;
	 184	 1	 6.83	 1.31	 0	 0	 1	 1.035	 0	 110	 4	 1.12	 0.95;
	 185	 2	 9.92	 0.3	 0	 0	 1	 1.035	 0	 110	 4	 1.12	 0.95;
	 186	 1	 30.17	 0.02	 0	 0	 1	 1.035	 0	 110	 4	 1.12	 0.95;
	 187	 1	 9.03	 0.24	 0	 0	 1	 1.035	 0	 110	 4	 1.12	 0.95;
	 188	 1	 32.64	 4.49	 0	 0	 1	 1.035	 0	 110	 4	 1.12	 0.95;
	 189	 1	 20.92	 1.28	 0	 0	 1	 1.035	 0	 110	 4	 1.12	 0.95;
	 190	 1	 15.42	 1.45	 0	 0	 1	 1.035	 0	 110	 4	 1.12	 0.95;
	 191	 1	 2.2	 0.05	 0	 0	 1	 1.035	 0	 110	 4	 1.12	 0.95;
	 192	 1	 4.85	 0.19	 0	 0	 1	 1.035	 0	 110	 4	 1.12	 0.95;
	 193	 1	 15.42	 2.14	 0	 0	 1	 1.035	 0	 110	 4	 1.12	 0.95;
	 194	 1	 11.78	-0.84	 0	 0	 1	 1.035	 0	 110	 4	 1.12	 0.95;
	 195	 1	 18.94	 0.7	 0	 0	 1	 1.035	 0	 110	 4	 1.12	 0.95;
	 196	 1	 3.09	-1.34	 0	 0	 1	 1.035	 0	 110	 4	 1.12	 0.95;
	 197	 1	 0	 0	 0	 0	 1	 1.035	 0	 110	 4	 1.12	 0.95;
	 198	 1	 0	 0	 0	 0	 1	 1.035	 0	 110	 4	 1.12	 0.95;
	 199	 1	 0	 0	 0	 0	 1	 1.035	 0	 110	 4	 1.12	 0.95;
	 200	 1	 0	 0	 0	 0	 1	 1.035	 0	 110	 4	 1.12	 0.95;
...
];

mpc_regionR2.gen = [
%	bus         Pg          Qg          Qmax        Qmin        Vg          mBase       status      Pmax        Pmin        Pc1         Pc2         Qc1min      Qc1max      Qc2min      Qc2max      ramp_agc    ramp_10     ramp_30     ramp_q      apf         
	 5	 0	 0	 149	-73	 1.03	 267.4	 0	 146	 45;
	 5	 0	 0	 149	-48	 1.03	 253.4	 0	 70	 67.5;
	 5	 0	 0	 149	-66	 1.03	 253.4	 0	 131	 67.5;
	 5	 115.5	 4.3	 149	-140.4	 1.03	 267.4	 1	 186	 45;
	 7	 163.5	 0	 236.4	-236.4	 1	 253.8	 1	 282	 45;
	 8	 166	 2.5	 149	-144	 1	 267.4	 1	 287	 45;
	 8	 0	 0	 123	-23	 1	 253.8	 0	 90	 26;
	 20	 186	 0	 144	-144	 1.03	 219.5	 1	 287	 85;
	 27	 58	 25	 110	-60	 1	 210.1	 1	 116	 0;
	 27	 101.5	 4	 110	-102	 1	 210.1	 1	 203	 0;
	 27	 50.5	 25	 110	-60	 1	 210.1	 1	 101	 0;
	 57	 122.5	 24.5	 149	-100	 1.035	 267.4	 1	 200	 45;
	 62	 0	 0	 14	-14	 1.035	 27.3	 0	 28	 0;
	 62	 59	 0	 59	-59	 1.035	 28.4	 1	 118	 0;
	 62	 0	 0	 158	-158	 1.035	 27.3	 0	 316	 0;
	 64	 238.5	 0	 229	-229	 1.035	 59.5	 1	 457	 20;
	 64	 99.5	 0	 98.4	-98.4	 1.035	 128.1	 1	 159	 40;
	 65	 0	 0	 90	 0	 1.035	 150.4	 0	 0	 0;
	 70	 35.6	 0	 36	-36	 1.035	 0.4	 1	 71	 0.2;
	 74	 0	 0	 10	 0	 1.035	 30.2	 0	 0	 0;
	 74	 0	 0	 10	 0	 1.035	 30.2	 0	 0	 0;
	 74	 96.25	 0	 90	-90	 1.035	 55.8	 1	 180	 12.5;
	 75	 0	 0	 2	 0	 1.035	 5.4	 0	 0	 0;
	 75	 0	 0	 2	 0	 1.035	 6.3	 0	 0	 0;
	 90	 49.75	 0	 50	-50	 1.035	 1.1	 1	 99	 0.5;
	 96	 62.125	 0	 61	-61	 1.035	 5	 1	 122	 2.25;
	 131	 23.7	 0	 24	-24	 1.035	 0.9	 1	 47	 0.4;
	 135	 91.6	 0	 92	-92	 1.035	 0.4	 1	 183	 0.2;
	 140	 38.625	 0	 37.2	-37.2	 1.035	 16	 1	 70	 7.25;
	 151	 82.5	 0	 70	-70	 1.035	 66.7	 1	 140	 25;
	 152	 0	 0	 15	 0	 1.035	 66.7	 0	 0	 0;
	 162	 104.5	 0	 104	-104	 1.035	 4.4	 1	 207	 2;
	 171	 21.25	 0	 21	-21	 1.035	 1.1	 1	 42	 0.5;
	 173	 76.05	 0	 76	-76	 1.035	 0.2	 1	 152	 0.1;
	 183	 0	 0	 15	 0	 1.035	 58	 0	 0	 0;
	 183	 0	 0	 6	 0	 1.035	 19	 0	 0	 0;
	 183	 29	 0	 29	-29	 1.035	 4.5	 1	 57	 1;
	 185	 44.525	 0	 45	-45	 1.035	 0.1	 1	 89	 0.05;
	 213	 26.75	 0	 26	-26	 1.035	 14.5	 1	 52	 1.5;
	 213	 0	 0	 10	 0	 1.035	 15.6	 0	 0	 0;
	 216	 69.625	 0	 70	-70	 1.035	 0.6	 1	 139	 0.25;
	 218	 36.025	 0	 36	-36	 1.035	 1.6	 1	 72	 0.05;
	 221	 9.575	 0	 10	-10	 1.035	 2.4	 1	 19	 0.15;
	 222	 50.75	 0	 44	-44	 1.035	 32.3	 1	 87	 14.5;
	 223	 0	 0	 4.8	-4.8	 1.035	 22	 1	 0	 0;
	 225	 0	-0.05	 1.1	-1.2	 1.035	 1.1	 1	 0	 0;
	 226	 42.55	 0	 43	-43	 1.035	 1.4	 1	 85	 0.1;
	 227	 17.575	 0	 18	-18	 1.035	 0.3	 1	 35	 0.15;
	 228	 14.625	 0	 15	-15	 1.035	 0.6	 1	 29	 0.25;
	 229	 0	 0.45	 2.1	-1.2	 1.035	 2.1	 1	 0	 0;
	 230	 23.5	 0	 23	-23	 1.035	 5.5	 1	 45	 2;
	 233	 31.875	 0	 31	-31	 1.035	 4	 1	 62	 1.75;
	 237	 0	 0.4	 2	-1.2	 1.035	 2	 1	 0	 0;
	 241	 0	 0	 9.6	-9.6	 1.035	 1.4	 1	 0	 0;
	 243	 0	 0.35	 3.1	-2.4	 1.035	 3.1	 1	 0	 0;
	 245	 0	 0	 8.4	-8.4	 1.035	 1.2	 1	 0	 0;
	 246	 0	 0	 4.8	-4.8	 1.035	 3.6	 1	 0	 0;
	 247	 65.625	 0	 66	-66	 1.035	 3.6	 1	 131	 0.25;
	 248	 20.75	 0	 21	-21	 1.035	 2.1	 1	 41	 0.5;
	 249	 0	-0.05	 1.1	-1.2	 1.035	 1.1	 1	 0	 0;
	 250	 77.525	 0	 78	-78	 1.035	 1.7	 1	 155	 0.05;
	 251	 0	 0	 1.2	-1.2	 1.035	 0.9	 1	 0	 0;
	 252	 12.1	 0	 12	-12	 1.035	 2	 1	 24	 0.2;
	 253	 61.625	 0	 62	-62	 1.035	 0.6	 1	 123	 0.25;
	 262	 0	 0	 8.4	-8.4	 1.035	 1.9	 1	 0	 0;
	 263	 0	 0	 6	-6	 1.035	 2	 1	 0	 0;
	 265	 0	 0	 2.4	-2.4	 1.035	 1.2	 1	 0	 0;
	 266	 44.675	 0	 45	-45	 1.035	 4.9	 1	 89	 0.35;
	 267	 0	 0	 1.2	-1.2	 1.035	 1.2	 1	 0	 0;
	 268	 0	 0	 2.4	-2.4	 1.035	 0.6	 1	 0	 0;
	 269	 0	 0	 9.6	-9.6	 1.035	 1.5	 1	 0	 0;
	 273	 0	 0	 25.2	-25.2	 1.035	 3.9	 1	 0	 0;
	 275	 0	 0.55	 2.3	-1.2	 1.035	 2.3	 1	 0	 0;
	 277	 54.125	 0	 54	-54	 1.035	 2.8	 1	 107	 1.25;
	 278	 0	 0	 7.2	-7.2	 1.035	 1.2	 1	 0	 0;
	 279	 0	 0	 13.2	-13.2	 1.035	 1.2	 1	 0	 0;
	 282	 80.025	 0	 80	-80	 1.035	 1.2	 1	 160	 0.05;
	 285	 0	 0	 6	-6	 1.035	 1	 1	 0	 0;
	 288	 0	 0	 26	-18	 1.035	 56.4	 0	 0	 0;
	 288	 0	 0	 26	-18	 1.035	 56.4	 0	 0	 0;
	 288	 0	 0	 26	-18	 1.035	 56.4	 0	 0	 0;
	 291	 155.17275	 0	 111	-111	 1.03	 182.6	 1	 222	 88.3455;
];

mpc_regionR2.branch = [
%	fbus        tbus        r           x           b           rateA       rateB       rateC       ratio       angle       status      angmin      angmax      
	 6	 7	 0.00064	 0.0305	 0	 400	 400	 400	 1.0636	 0	 1	-30	 30;
	 15	 17	 0.00035	 0.02375	 0	 500	 500	 500	 1.0767	 0	 1	-30	 30;
	 21	 22	 0.00059	 0.03093	 0	 400	 400	 400	 1.0504	 0	 1	-30	 30;
	 291	 5	 0.001651	 0.015909	 0.046948	 316	 316	 316	 0	 0	 1	-30	 30;
	 291	 6	 0.001651	 0.015909	 0.046948	 316	 316	 316	 0	 0	 1	-30	 30;
	 28	 13	 0.01676	 0.097169	 0.148685	 269	 269	 269	 0	 0	 1	-30	 30;
	 23	 7	 0.00294	 0.03463	 0.9216	 693	 693	 693	 0	 0	 1	-30	 30;
	 5	 4	 0.01043	 0.077891	 0.122065	 383	 383	 383	 0	 0	 1	-30	 30;
	 9	 20	 0.002256	 0.016674	 0.02541	 333	 333	 333	 0	 0	 1	-30	 30;
	 19	 15	 0.00244	 0.01318	 0.021296	 341	 341	 341	 0	 0	 0	-30	 30;
	 15	 1	 0.00355	 0.02593	 0.041237	 404	 404	 404	 0	 0	 1	-30	 30;
	 16	 13	 0.01312	 0.076219	 0.116644	 324	 324	 324	 0	 0	 1	-30	 30;
	 10	 4	 0.010539	 0.076859	 0.122355	 316	 316	 316	 0	 0	 1	-30	 30;
	 11	 5	 0.00469	 0.034651	 0.053821	 383	 383	 383	 0	 0	 1	-30	 30;
	 6	 2	 0.006469	 0.0413	 0.069212	 383	 383	 383	 0	 0	 1	-30	 30;
	 14	 2	 0.00105	 0.007211	 0.01028	 316	 316	 316	 0	 0	 1	-30	 30;
	 14	 11	 0.006099	 0.044831	 0.070954	 316	 316	 316	 0	 0	 1	-30	 30;
	 17	 8	 0.00371	 0.04326	 1.18688	 693	 693	 693	 0	 0	 1	-30	 30;
	 24	 29	 0.01905	 0.11132	 0.167851	 269	 269	 269	 0	 0	 1	-30	 30;
	 29	 21	 0.0057	 0.04236	 0.129712	 366	 366	 366	 0	 0	 1	-30	 30;
	 26	 22	 0.00131	 0.01548	 0.41152	 1150	 1150	 1150	 0	 0	 1	-30	 30;
	 27	 25	 0.0015	 0.01768	 0.46944	 831	 831	 831	 0	 0	 1	-30	 30;
	 49	 1	 0.00151	 0.06688	 0	 160	 160	 160	 1.001	 0	 1	-30	 30;
	 71	 2	 0.00151	 0.06688	 0	 160	 160	 160	 1.0035	 0	 1	-30	 30;
	 74	 4	 0.00161	 0.066531	 0	 160	 160	 160	 1.0011	 0	 1	-30	 30;
	 75	 4	 0.00161	 0.066531	 0	 160	 160	 160	 1.0036	 0	 1	-30	 30;
	 95	 5	 0.00163	 0.061359	 0.004162	 160	 160	 160	 1.0115	 0	 1	-30	 30;
	 101	 9	 0.001651	 0.0593	 0	 160	 160	 160	 1.0143	 0	 1	-30	 30;
	 102	 10	 0.001651	 0.0593	 0	 160	 160	 160	 1.0118	 0	 1	-30	 30;
	 114	 11	 0.000289	 0.061359	 0.004162	 160	 160	 160	 1.0147	 0	 1	-30	 30;
	 115	 11	 0.001651	 0.068599	 0	 160	 160	 160	 1.0132	 0	 1	-30	 30;
	 138	 13	 0.001651	 0.0593	 0	 160	 160	 160	 0.9811	 0	 1	-30	 30;
	 139	 13	 0.001651	 0.0593	 0	 160	 160	 160	 0.9852	 0	 1	-30	 30;
	 140	 14	 0.00281	 0.10601	 0	 100	 100	 100	 0.9302	 0	 1	-30	 30;
	 141	 14	 0.00281	 0.10601	 0	 100	 100	 100	 0.9302	 0	 1	-30	 30;
	 143	 16	 0.001651	 0.0593	 0	 160	 160	 160	 0.9966	 0	 1	-30	 30;
	 142	 17	 0.00101	 0.06188	-0.01984	 330	 330	 330	 1.0659	 0	 1	-30	 30;
	 143	 17	 0.00153	 0.06206	 0	 250	 250	 250	 1.0827	 0	 1	-30	 30;
	 155	 19	 0.001651	 0.052289	 0	 160	 160	 160	 1.028	 0	 1	-30	 30;
	 231	 23	 0.00137	 0.059687	 0	 250	 250	 250	 1.0812	 0	 1	-30	 30;
	 234	 24	 0.0037	 0.18657	 0	 120	 120	 120	 1.01	 0	 1	-30	 30;
	 271	 25	 0.00059	 0.042063	 0	 330	 330	 330	 1.085	 0	 1	-30	 30;
	 286	 27	 0.00137	 0.059687	 0	 250	 250	 250	 1.0846	 0	 1	-30	 30;
	 287	 27	 0.00137	 0.059687	 0	 250	 250	 250	 1.0846	 0	 1	-30	 30;
	 288	 28	 0.00155	 0.067975	 0	 160	 160	 160	 1.0389	 0	 1	-30	 30;
	 289	 29	 0.00161	 0.067748	 0	 160	 160	 160	 1.0367	 0	 1	-30	 30;
	 265	 100	 0.068256	 0.184298	 0.017981	 50	 50	 50	 0	 0	 0	-30	 30;
	 229	 192	 0.034628	 0.060744	 0.005711	 69	 69	 69	 0	 0	 0	-30	 30;
	 262	 131	 0.023058	 0.07438	 0.007841	 123	 123	 123	 0	 0	 0	-30	 30;
	 243	 185	 0.04314	 0.071901	 0.00741	 69	 69	 69	 0	 0	 0	-30	 30;
	 57	 95	 0.000636	 0.004826	 0.000469	 123	 123	 123	 0	 0	 1	-30	 30;
	 175	 111	 0.033471	 0.058934	 0.005779	 78	 78	 78	 0	 0	 1	-30	 30;
	 214	 111	 0.029587	 0.054711	 0.005031	 78	 78	 78	 0	 0	 1	-30	 30;
	 214	 112	 0.033058	 0.058603	 0.005571	 78	 78	 78	 0	 0	 1	-30	 30;
	 161	 117	 0.048016	 0.102636	 0.013441	 55	 55	 55	 0	 0	 1	-30	 30;
	 117	 36	 0.013802	 0.024207	 0.002299	 55	 55	 55	 0	 0	 1	-30	 30;
	 61	 54	 0.056364	 0.105207	 0.01021	 78	 78	 78	 0	 0	 1	-30	 30;
	 56	 46	 0.021744	 0.05	 0.005009	 76	 76	 76	 0	 0	 1	-30	 30;
	 98	 46	 0.034711	 0.067438	 0.006631	 76	 76	 76	 0	 0	 1	-30	 30;
	 55	 32	 0.019711	 0.06676	 0.006609	 120	 120	 120	 0	 0	 1	-30	 30;
	 165	 48	 0.022281	 0.075446	 0.00747	 123	 123	 123	 0	 0	 1	-30	 30;
	 177	 53	 0.025207	 0.082636	 0.00847	 123	 123	 123	 0	 0	 1	-30	 30;
	 207	 128	 0.024132	 0.078512	 0.008199	 123	 123	 123	 0	 0	 1	-30	 30;
	 61	 59	 0.018347	 0.062562	 0.00605	 123	 123	 123	 0	 0	 1	-30	 30;
	 147	 143	 0.080661	 0.142066	 0.013479	 120	 120	 120	 0	 0	 1	-30	 30;
	 194	 61	 0.041157	 0.104463	 0.01043	 102	 102	 102	 0	 0	 1	-30	 30;
	 216	 194	 0.058083	 0.103752	 0.00991	 78	 78	 78	 0	 0	 1	-30	 30;
	 195	 124	 0.025041	 0.042893	 0.004281	 120	 120	 120	 0	 0	 1	-30	 30;
	 186	 174	 0.016612	 0.053802	 0.005571	 91	 91	 91	 0	 0	 1	-30	 30;
	 51	 187	 0.015703	 0.05157	 0.00528	 123	 123	 123	 0	 0	 1	-30	 30;
	 138	 187	 0.024793	 0.081322	 0.008339	 120	 120	 120	 0	 0	 1	-30	 30;
	 120	 65	 0.002917	 0.009876	 0.00098	 102	 102	 102	 0	 0	 1	-30	 30;
	 64	 50	 0.006033	 0.017851	 0.00183	 102	 102	 102	 0	 0	 1	-30	 30;
	 189	 73	 0.042066	 0.141322	 0.013939	 120	 120	 120	 0	 0	 1	-30	 30;
	 189	 42	 0.029917	 0.101364	 0.010031	 120	 120	 120	 0	 0	 1	-30	 30;
	 139	 42	 0.011653	 0.03957	 0.00392	 91	 91	 91	 0	 0	 1	-30	 30;
	 37	 134	 0.003719	 0.012479	 0.001159	 102	 102	 102	 0	 0	 1	-30	 30;
	 49	 45	 0.005372	 0.015124	 0.001529	 102	 102	 102	 0	 0	 1	-30	 30;
	 190	 159	 0.004132	 0.01405	 0.001379	 123	 123	 123	 0	 0	 1	-30	 30;
	 65	 45	 0.000744	 0.002314	 0.00024	 123	 123	 123	 0	 0	 1	-30	 30;
	 209	 160	 0.007107	 0.019422	 0.002011	 102	 102	 102	 0	 0	 1	-30	 30;
	 30	 64	 0.004992	 0.016909	 0.001469	 123	 123	 123	 0	 0	 1	-30	 30;
	 200	 138	 0.019174	 0.063876	 0.00598	 123	 123	 123	 0	 0	 1	-30	 30;
	 200	 157	 0.003802	 0.012636	 0.001191	 123	 123	 123	 0	 0	 1	-30	 30;
	 200	 136	 0.001157	 0.003802	 0.00038	 123	 123	 123	 0	 0	 1	-30	 30;
	 215	 90	 0.014554	 0.053141	 0.00523	 123	 123	 123	 0	 0	 1	-30	 30;
	 131	 90	 0.017107	 0.057686	 0.00567	 123	 123	 123	 0	 0	 1	-30	 30;
	 91	 87	 0.029008	 0.051653	 0.004891	 78	 78	 78	 0	 0	 1	-30	 30;
	 116	 87	 0.016612	 0.029496	 0.00288	 78	 78	 78	 0	 0	 1	-30	 30;
	 157	 135	 0.007934	 0.026777	 0.00264	 123	 123	 123	 0	 0	 1	-30	 30;
	 136	 135	 0.008636	 0.017298	 0.00166	 78	 78	 78	 0	 0	 1	-30	 30;
	 130	 35	 0.037603	 0.067603	 0.00651	 78	 78	 78	 0	 0	 1	-30	 30;
	 137	 92	 0.014132	 0.046281	 0.004751	 123	 123	 123	 0	 0	 1	-30	 30;
	 132	 79	 0.01	 0.034793	 0.00317	 120	 120	 120	 0	 0	 1	-30	 30;
	 209	 30	 0.006099	 0.020653	 0.00204	 123	 123	 123	 0	 0	 1	-30	 30;
	 128	 79	 0.041397	 0.083554	 0.00786	 78	 78	 78	 0	 0	 1	-30	 30;
	 153	 133	 0.009678	 0.032793	 0.00325	 123	 123	 123	 0	 0	 1	-30	 30;
	 50	 34	 0.011653	 0.034628	 0.00356	 78	 78	 78	 0	 0	 1	-30	 30;
	 149	 50	 0.022041	 0.074669	 0.007391	 91	 91	 91	 0	 0	 1	-30	 30;
	 66	 149	 0.012141	 0.041124	 0.00407	 91	 91	 91	 0	 0	 1	-30	 30;
	 178	 124	 0.040331	 0.068934	 0.006921	 91	 91	 91	 0	 0	 1	-30	 30;
	 194	 147	 0.033636	 0.085446	 0.008741	 91	 91	 91	 0	 0	 1	-30	 30;
	 201	 138	 0.016686	 0.035289	 0.00341	 78	 78	 78	 0	 0	 1	-30	 30;
	 201	 193	 0.057603	 0.122149	 0.01179	 78	 78	 78	 0	 0	 1	-30	 30;
	 201	 136	 8e-06	 8.3e-05	 0	 78	 78	 78	 0	 0	 0	-30	 30;
	 194	 174	 0.035289	 0.060331	 0.00605	 78	 78	 78	 0	 0	 1	-30	 30;
	 142	 92	 0.016124	 0.05405	 0.005319	 120	 120	 120	 0	 0	 1	-30	 30;
	 195	 108	 0.039669	 0.069339	 0.006631	 78	 78	 78	 0	 0	 1	-30	 30;
	 170	 142	 0.023967	 0.042231	 0.004141	 78	 78	 78	 0	 0	 1	-30	 30;
	 170	 91	 0.046446	 0.081744	 0.00801	 78	 78	 78	 0	 0	 1	-30	 30;
	 41	 143	 0.02276	 0.077099	 0.00763	 120	 120	 120	 0	 0	 1	-30	 30;
	 178	 122	 0.01124	 0.038182	 0.00378	 91	 91	 91	 0	 0	 1	-30	 30;
	 175	 147	 0.023471	 0.057851	 0.005929	 91	 91	 91	 0	 0	 1	-30	 30;
	 139	 136	 0.009826	 0.033223	 0.003279	 123	 123	 123	 0	 0	 1	-30	 30;
	 73	 66	 0.013934	 0.047207	 0.004671	 91	 91	 91	 0	 0	 1	-30	 30;
	 215	 139	 0.060496	 0.118182	 0.011589	 78	 78	 78	 0	 0	 1	-30	 30;
	 169	 92	 0.006149	 0.020827	 0.002062	 91	 91	 91	 0	 0	 1	-30	 30;
	 186	 169	 0.007587	 0.025686	 0.002543	 91	 91	 91	 0	 0	 1	-30	 30;
	 150	 64	 0.00519	 0.014132	 0.00143	 102	 102	 102	 0	 0	 1	-30	 30;
	 193	 113	 0.067438	 0.118017	 0.01126	 10	 10	 10	 0	 0	 1	-30	 30;
	 41	 132	 0.014521	 0.049174	 0.004869	 78	 78	 78	 0	 0	 1	-30	 30;
	 150	 121	 0.001818	 0.004554	 0.00046	 91	 91	 91	 0	 0	 1	-30	 30;
	 133	 65	 0.002587	 0.00876	 0.000871	 123	 123	 123	 0	 0	 1	-30	 30;
	 137	 154	 0.001901	 0.006033	 0.00061	 123	 123	 123	 0	 0	 1	-30	 30;
	 134	 97	 0.001744	 0.004793	 0.000479	 102	 102	 102	 0	 0	 1	-30	 30;
	 137	 49	 0.00686	 0.021984	 0.00228	 123	 123	 123	 0	 0	 1	-30	 30;
	 164	 130	 0.017017	 0.055124	 0.005711	 123	 123	 123	 0	 0	 1	-30	 30;
	 160	 155	 0.010281	 0.021636	 0.002101	 78	 78	 78	 0	 0	 1	-30	 30;
	 178	 64	 0.011256	 0.038141	 0.00378	 91	 91	 91	 0	 0	 1	-30	 30;
	 202	 153	 0.003033	 0.010289	 0.001019	 102	 102	 102	 0	 0	 1	-30	 30;
	 37	 202	 0.006174	 0.017364	 0.00174	 102	 102	 102	 0	 0	 1	-30	 30;
	 209	 202	 4.1e-05	 0.000141	 1e-05	 102	 102	 102	 0	 0	 0	-30	 30;
	 143	 68	 0.007314	 0.012793	 0.00122	 78	 78	 78	 0	 0	 1	-30	 30;
	 142	 158	 0.009587	 0.024744	 0.00251	 102	 102	 102	 0	 0	 1	-30	 30;
	 143	 159	 0.009587	 0.024744	 0.00251	 102	 102	 102	 0	 0	 1	-30	 30;
	 103	 142	 0.013438	 0.023826	 0.00227	 78	 78	 78	 0	 0	 1	-30	 30;
	 156	 103	 0.006983	 0.012793	 0.00098	 78	 78	 78	 0	 0	 1	-30	 30;
	 143	 89	 0.005744	 0.019438	 0.001919	 123	 123	 123	 0	 0	 1	-30	 30;
	 154	 123	 0.003388	 0.010992	 0.00114	 123	 123	 123	 0	 0	 1	-30	 30;
	 123	 65	 0.00281	 0.009091	 0.000939	 123	 123	 123	 0	 0	 1	-30	 30;
	 156	 122	 0.014752	 0.049984	 0.004949	 78	 78	 78	 0	 0	 1	-30	 30;
	 190	 154	 0.00405	 0.013388	 0.001379	 123	 123	 123	 0	 0	 1	-30	 30;
	 216	 51	 0.010314	 0.017967	 0.001711	 78	 78	 78	 0	 0	 1	-30	 30;
	 189	 164	 0.039504	 0.072314	 0.007279	 78	 78	 78	 0	 0	 1	-30	 30;
	 150	 47	 0.001653	 0.005372	 0.000549	 123	 123	 123	 0	 0	 1	-30	 30;
	 190	 47	 0.001818	 0.00595	 0.000629	 123	 123	 123	 0	 0	 1	-30	 30;
	 97	 89	 0.00405	 0.013314	 0.001379	 123	 123	 123	 0	 0	 1	-30	 30;
	 156	 69	 0.020347	 0.035578	 0.0034	 78	 78	 78	 0	 0	 1	-30	 30;
	 155	 116	 0.022719	 0.039727	 0.00379	 78	 78	 78	 0	 0	 1	-30	 30;
	 98	 54	 0.046686	 0.095446	 0.00939	 76	 76	 76	 0	 0	 1	-30	 30;
	 96	 55	 0.033967	 0.059422	 0.00567	 78	 78	 78	 0	 0	 1	-30	 30;
	 173	 74	 0.027364	 0.091818	 0.00907	 78	 78	 78	 0	 0	 1	-30	 30;
	 176	 75	 0.02719	 0.087934	 0.009099	 123	 123	 123	 0	 0	 1	-30	 30;
	 96	 86	 0.029669	 0.049256	 0.004859	 78	 78	 78	 0	 0	 1	-30	 30;
	 176	 59	 0.025207	 0.081818	 0.009169	 123	 123	 123	 0	 0	 1	-30	 30;
	 199	 88	 0.059446	 0.103983	 0.00992	 76	 76	 76	 0	 0	 1	-30	 30;
	 36	 199	 0.018769	 0.032818	 0.003129	 76	 76	 76	 0	 0	 1	-30	 30;
	 118	 199	 0.021107	 0.071504	 0.007081	 76	 76	 76	 0	 0	 1	-30	 30;
	 198	 74	 0.024727	 0.054	 0.00523	 78	 78	 78	 0	 0	 1	-30	 30;
	 177	 198	 0.053826	 0.110008	 0.010609	 78	 78	 78	 0	 0	 1	-30	 30;
	 105	 198	 0.00257	 0.004488	 0.000431	 78	 78	 78	 0	 0	 1	-30	 30;
	 88	 74	 0.001397	 0.004628	 0.00046	 76	 76	 76	 0	 0	 1	-30	 30;
	 166	 165	 0.026612	 0.086612	 0.00899	 123	 123	 123	 0	 0	 1	-30	 30;
	 173	 112	 0.021984	 0.073802	 0.007359	 78	 78	 78	 0	 0	 1	-30	 30;
	 197	 75	 0.03224	 0.069984	 0.006778	 78	 78	 78	 0	 0	 1	-30	 30;
	 104	 197	 0.001975	 0.003455	 0.000329	 78	 78	 78	 0	 0	 1	-30	 30;
	 55	 197	 0.069529	 0.121603	 0.011602	 78	 78	 78	 0	 0	 1	-30	 30;
	 166	 86	 0.031488	 0.052149	 0.00515	 76	 76	 76	 0	 0	 1	-30	 30;
	 82	 74	 0.010397	 0.037041	 0.002819	 78	 78	 78	 0	 0	 1	-30	 30;
	 81	 82	 0.003752	 0.006562	 0.000629	 78	 78	 78	 0	 0	 1	-30	 30;
	 78	 81	 0.007107	 0.012438	 0.001191	 78	 78	 78	 0	 0	 1	-30	 30;
	 85	 75	 0.004149	 0.007256	 0.00069	 78	 78	 78	 0	 0	 1	-30	 30;
	 77	 85	 0.006521	 0.011397	 0.001089	 78	 78	 78	 0	 0	 1	-30	 30;
	 114	 52	 0.019826	 0.055041	 0.005951	 76	 76	 76	 0	 0	 1	-30	 30;
	 203	 183	 0.010934	 0.030479	 0.003071	 102	 102	 102	 0	 0	 1	-30	 30;
	 52	 203	 0.003752	 0.010248	 0.001031	 102	 102	 102	 0	 0	 1	-30	 30;
	 208	 203	 0.003826	 0.006686	 0.000639	 102	 102	 102	 0	 0	 1	-30	 30;
	 217	 152	 0.011727	 0.030521	 0.00303	 78	 78	 78	 0	 0	 1	-30	 30;
	 217	 115	 0.040231	 0.102769	 0.01021	 78	 78	 78	 0	 0	 1	-30	 30;
	 182	 115	 0.028603	 0.053223	 0.00515	 76	 76	 76	 0	 0	 1	-30	 30;
	 40	 57	 9.1e-05	 0.000686	 7e-05	 120	 120	 120	 0	 0	 1	-30	 30;
	 80	 40	 0.005554	 0.018182	 0.001861	 120	 120	 120	 0	 0	 1	-30	 30;
	 151	 71	 0.025603	 0.078397	 0.008061	 78	 78	 78	 0	 0	 1	-30	 30;
	 152	 84	 0.006612	 0.018256	 0.001941	 102	 102	 102	 0	 0	 1	-30	 30;
	 184	 71	 0.009603	 0.024744	 0.00251	 69	 69	 69	 0	 0	 1	-30	 30;
	 141	 184	 0.001711	 0.005157	 0.00052	 69	 69	 69	 0	 0	 0	-30	 30;
	 172	 71	 0.006281	 0.010578	 0.001079	 78	 78	 78	 0	 0	 1	-30	 30;
	 210	 72	 0.017769	 0.03157	 0.003011	 78	 78	 78	 0	 0	 1	-30	 30;
	 115	 107	 0.027058	 0.091636	 0.00907	 78	 78	 78	 0	 0	 1	-30	 30;
...